                                  MODFLOW-NWT-SWR1 
      U.S. GEOLOGICAL SURVEY MODULAR FINITE-DIFFERENCE GROUNDWATER-FLOW MODEL
                            VERSION 1.1.3, 8/01/2017
                    BASED ON MODFLOW-2005 VERSION 1.11.00 08/08/2013

 LIST FILE: Hubbertville_example.list
                         UNIT    2

 OPENING Hubbertville_example.dis
 FILE TYPE:DIS   UNIT   11   STATUS:OLD    
 FORMAT:FORMATTED              ACCESS:SEQUENTIAL          

 OPENING Hubbertville_example.bas
 FILE TYPE:BAS6   UNIT   13   STATUS:OLD    
 FORMAT:FORMATTED              ACCESS:SEQUENTIAL          

 OPENING Hubbertville_example.ghb
 FILE TYPE:GHB   UNIT   23   STATUS:OLD    
 FORMAT:FORMATTED              ACCESS:SEQUENTIAL          

 OPENING Hubbertville_example.oc
 FILE TYPE:OC   UNIT   14   STATUS:OLD    
 FORMAT:FORMATTED              ACCESS:SEQUENTIAL          

 OPENING Hubbertville_example.upw
 FILE TYPE:UPW   UNIT   31   STATUS:OLD    
 FORMAT:FORMATTED              ACCESS:SEQUENTIAL          

 OPENING Hubbertville_example.nwt
 FILE TYPE:NWT   UNIT   32   STATUS:OLD    
 FORMAT:FORMATTED              ACCESS:SEQUENTIAL          

 OPENING Hubbertville_example.wel
 FILE TYPE:WEL   UNIT   20   STATUS:OLD    
 FORMAT:FORMATTED              ACCESS:SEQUENTIAL          

 OPENING Hubbertville_example.hds
 FILE TYPE:DATA(BINARY)   UNIT   51   STATUS:REPLACE
 FORMAT:UNFORMATTED            ACCESS:STREAM              

 BAS -- BASIC PACKAGE, VERSION 1.1.3, 8/01/2017 INPUT READ FROM UNIT   13

 MODFLOW was compiled using mixed precision
 Precision of REAL variables:           6
 Precision of DOUBLE PRECISION variables:          15

 DISCRETIZATION INPUT DATA READ FROM UNIT   11
 # DIS package for  MODFLOW-NWT, generated by Flopy.
    1 LAYERS        22 ROWS        11 COLUMNS
   10 STRESS PERIOD(S) IN SIMULATION
 MODEL TIME UNIT IS DAYS
 MODEL LENGTH UNIT IS METERS
  Confining bed flag for each layer:
   0

                     DELR =   500.000    

                     DELC =   500.000    



           TOP ELEVATION OF LAYER 1
 READING ON UNIT   11 WITH FORMAT: (11E15.6)           

   MODEL LAYER BOTTOM EL. =   980.000     FOR LAYER   1


 STRESS PERIOD     LENGTH       TIME STEPS     MULTIPLIER FOR DELT    SS FLAG
 ----------------------------------------------------------------------------
        1         365.2500          1                    1.000         SS
        2         365.2500          1                    1.000         TR
        3         365.2500          1                    1.000         TR
        4         365.2500          1                    1.000         TR
        5         365.2500          1                    1.000         TR
        6         365.2500          1                    1.000         TR
        7         365.2500          1                    1.000         TR
        8         365.2500          1                    1.000         TR
        9         365.2500          1                    1.000         TR
       10         365.2500          1                    1.000         TR

 COMBINED STEADY-STATE AND TRANSIENT SIMULATION




 # BAS6 package for  MODFLOW-NWT, generated by Flopy.                            
 THE FREE FORMAT OPTION HAS BEEN SELECTED



                     BOUNDARY ARRAY FOR LAYER   1
 READING ON UNIT   13 WITH FORMAT: (11I10)             

 AQUIFER HEAD WILL BE SET TO  -999.99     AT ALL NO-FLOW NODES (IBOUND=0).



                       INITIAL HEAD FOR LAYER   1
 READING ON UNIT   13 WITH FORMAT: (11E15.6)           
 # OC package for  MODFLOW-NWT, generated by Flopy.

 OUTPUT CONTROL IS SPECIFIED ONLY AT TIME STEPS FOR WHICH OUTPUT IS DESIRED
 COMPACT CELL-BY-CELL BUDGET FILES WILL BE WRITTEN
 AUXILIARY DATA WILL BE SAVED IN CELL-BY-CELL BUDGET FILES
 HEAD PRINT FORMAT CODE IS   0    DRAWDOWN PRINT FORMAT CODE IS   0
 HEADS WILL BE SAVED ON UNIT   51    DRAWDOWNS WILL BE SAVED ON UNIT    0
 # NWT package for  MODFLOW-NWT, generated by Flopy.

 NWT1 -- Newton Solver, VERSION 1.1.3, 8/01/2017
         INPUT READ FROM UNIT 32

 COMPLEX OPTION:
 DEFAULT SOLVER INPUT VALUES REFLECT STRONGLY NONLINEAR MODEL
 ***GMRES linear solver will be used***

   CONVERGENCE CRITERION OF   0.100000E-01 FOR HEAD SOLUTION
   AND A TOLERANCE OF   0.500000E+03 FOR FLOW SOLUTION AND 
   A MAXIMUM OF   100 OUTER ITERATIONS. 


   D-B-D REDUCTION FACTOR OF    0.850000E+00 AND 
   A D-B-D INCREASE FACTOR OF    0.100000E-04 AND 
   A D-B-D RELAXATION OF    0.000000E+00 AND 
   A MOMENTUM FACTOR OF    0.100000E+00 .


   BACKTRACKING IS ACTIVE 
   THE MAXIMUM NUMBER OF BACKTRACKS IS    50 AND 
   THE BACKTRACKING TOLERANCE IS    0.110000E+01 AND
   THE BACKTRACKING REDUCTION FACTOR IS    0.700000E+00

 GMRES -- LINEAR SOLUTION BY GMRES PACKAGE 
     adapted for HYDROTHERM by Kipp and others (2008)
     using software originally developed by Saad (1990) 32
     using algorithms described in Saad (2003)

 UPW1 -- UPSTREAM WEIGHTING FLOW PACKAGE, VERSION 1.1.3, 8/01/2017
         INPUT READ FROM UNIT 31

 # UPW package for  MODFLOW-NWT, generated by Flopy.
 No named parameters

   LAYER FLAGS:
 LAYER       LAYTYP          LAYAVG    CHANI           LAYVKA           LAYWET
 ---------------------------------------------------------------------------
    1             1             0     1.000E+00             0             0

   INTERPRETATION OF LAYER FLAGS:
                        INTERBLOCK     HORIZONTAL    DATA IN
         LAYER TYPE   TRANSMISSIVITY   ANISOTROPY   ARRAY VKA   WETTABILITY
 LAYER   (LAYTYP)        (LAYAVG)      (CHANI)     (LAYVKA)       (LAYWET)
 ---------------------------------------------------------------------------
    1   CONVERTIBLE      HARMONIC     1.000E+00    VERTICAL K  NON-WETTABLE



              HYD. COND. ALONG ROWS FOR LAYER   1
 READING ON UNIT   31 WITH FORMAT: (11E15.6)           

      VERTICAL HYD. COND. =   50.0000     FOR LAYER   1

         SPECIFIC STORAGE =  1.000000E-05 FOR LAYER   1

           SPECIFIC YIELD =  1.000000E-03 FOR LAYER   1

 WEL -- WELL PACKAGE FOR NWT VERSION 1.1.3,  8/01/2017 INPUT READ FROM UNIT   20
 # WEL package for  MODFLOW-NWT, generated by Flopy.
 No named parameters
 MAXIMUM OF      1 ACTIVE WELLS AT ONE TIME
 No named parameters
  PHIRAMP WILL BE SET TO A DEFAULT VALUE OF 1.0E-5
  WELLS WITH REDUCED PUMPING WILL BE REPORTED TO THE MAIN LISTING FILE


     0 Well parameters

 GHB -- GENERAL-HEAD BOUNDARY PACKAGE, VERSION 7, 5/2/2005
         INPUT READ FROM UNIT   23
 # GHB package for  MODFLOW-NWT, generated by Flopy.
 No named parameters
 MAXIMUM OF     22 ACTIVE GHB CELLS AT ONE TIME


     0 GHB parameters
1
                            STRESS PERIOD NO.    1, LENGTH =   365.2500    
                            -----------------------------------------------

                              NUMBER OF TIME STEPS =     1

                               MULTIPLIER FOR DELT =     1.000

                            INITIAL TIME STEP SIZE =   365.2500    

 WELL NO.  LAYER   ROW   COL   STRESS RATE         
 --------------------------------------------------
      1      1      5      6       0.000    

      1 WELL 

 BOUND. NO. LAYER   ROW   COL     STAGE      CONDUCTANCE         
 ----------------------------------------------------------------
      1      1      1      1       1000.           5.000    
      2      1     22      1       1000.           1000.    
      3      1      1      2       1000.           5.000    
      4      1     22      2       1000.           1000.    
      5      1      1      3       1000.           5.000    
      6      1     22      3       1000.           1000.    
      7      1      1      4       1000.           5.000    
      8      1     22      4       1000.           1000.    
      9      1      1      5       1000.           5.000    
     10      1     22      5       1000.           1000.    
     11      1      1      6       1000.           5.000    
     12      1     22      6       1000.           1000.    
     13      1      1      7       1000.           5.000    
     14      1     22      7       1000.           1000.    
     15      1      1      8       1000.           5.000    
     16      1     22      8       1000.           1000.    
     17      1      1      9       1000.           5.000    
     18      1     22      9       1000.           1000.    
     19      1      1     10       1000.           5.000    
     20      1     22     10       1000.           1000.    
     21      1      1     11       1000.           5.000    
     22      1     22     11       1000.           1000.    

     22 GHB CELLS

 SOLVING FOR HEAD 

    ------------------------------------------------
       NWT REQUIRED            4 OUTER ITERATIONS 
       AND A TOTAL OF         57 INNER ITERATIONS.
    ------------------------------------------------

 OUTPUT CONTROL FOR STRESS PERIOD    1   TIME STEP    1
    PRINT HEAD FOR ALL LAYERS
    SAVE HEAD FOR ALL LAYERS
    PRINT BUDGET
    SAVE BUDGET
1
              HEAD IN LAYER   1 AT END OF TIME STEP     1 IN STRESS PERIOD    1
  -----------------------------------------------------------------------------

            1           2           3           4           5           6           7           8           9          10
           11
 ........................................................................................................................
   1   -1000.       1000.       1000.       1000.       1000.       1000.       1000.       1000.       1000.       1000.    
       -1000.    
   2   -1000.       1000.       1000.       1000.       1000.       1000.       1000.       1000.       1000.       1000.    
       -1000.    
   3   -1000.       1000.       1000.       1000.       1000.       1000.       1000.       1000.       1000.       1000.    
       -1000.    
   4   -1000.       1000.       1000.       1000.       1000.       1000.       1000.       1000.       1000.       1000.    
       -1000.    
   5   -1000.       1000.       1000.       1000.       1000.       1000.       1000.       1000.       1000.       1000.    
       -1000.    
   6   -1000.       1000.       1000.       1000.       1000.       1000.       1000.       1000.       1000.       1000.    
       -1000.    
   7   -1000.       1000.       1000.       1000.       1000.       1000.       1000.       1000.       1000.       1000.    
       -1000.    
   8   -1000.       1000.       1000.       1000.       1000.       1000.       1000.       1000.       1000.       1000.    
       -1000.    
   9   -1000.       1000.       1000.       1000.       1000.       1000.       1000.       1000.       1000.       1000.    
       -1000.    
  10   -1000.       1000.       1000.       1000.       1000.       1000.       1000.       1000.       1000.       1000.    
       -1000.    
  11   -1000.       1000.       1000.       1000.       1000.       1000.       1000.       1000.       1000.       1000.    
       -1000.    
  12   -1000.       1000.       1000.       1000.       1000.       1000.       1000.       1000.       1000.       1000.    
       -1000.    
  13   -1000.       1000.       1000.       1000.       1000.       1000.       1000.       1000.       1000.       1000.    
       -1000.    
  14   -1000.       1000.       1000.       1000.       1000.       1000.       1000.       1000.       1000.       1000.    
       -1000.    
  15   -1000.       1000.       1000.       1000.       1000.       1000.       1000.       1000.       1000.       1000.    
       -1000.    
  16   -1000.       1000.       1000.       1000.       1000.       1000.       1000.       1000.       1000.       1000.    
       -1000.    
  17   -1000.       1000.       1000.       1000.       1000.       1000.       1000.       1000.       1000.       1000.    
       -1000.    
  18   -1000.       1000.       1000.       1000.       1000.       1000.       1000.       1000.       1000.       1000.    
       -1000.    
  19   -1000.       1000.       1000.       1000.       1000.       1000.       1000.       1000.       1000.       1000.    
       -1000.    
  20   -1000.       1000.       1000.       1000.       1000.       1000.       1000.       1000.       1000.       1000.    
       -1000.    
  21   -1000.       1000.       1000.       1000.       1000.       1000.       1000.       1000.       1000.       1000.    
       -1000.    
  22   -1000.       1000.       1000.       1000.       1000.       1000.       1000.       1000.       1000.       1000.    
       -1000.    

 HEAD WILL BE SAVED ON UNIT   51 AT END OF TIME STEP    1, STRESS PERIOD    1
1
  VOLUMETRIC BUDGET FOR ENTIRE MODEL AT END OF TIME STEP    1, STRESS PERIOD   1
  ------------------------------------------------------------------------------

     CUMULATIVE VOLUMES      L**3       RATES FOR THIS TIME STEP      L**3/T
     ------------------                 ------------------------

           IN:                                      IN:
           ---                                      ---
             STORAGE =           0.0000               STORAGE =           0.0000
       CONSTANT HEAD =           0.0000         CONSTANT HEAD =           0.0000
               WELLS =           0.0000                 WELLS =           0.0000
     HEAD DEP BOUNDS =           0.0000       HEAD DEP BOUNDS =           0.0000

            TOTAL IN =           0.0000              TOTAL IN =           0.0000

          OUT:                                     OUT:
          ----                                     ----
             STORAGE =           0.0000               STORAGE =           0.0000
       CONSTANT HEAD =           0.0000         CONSTANT HEAD =           0.0000
               WELLS =           0.0000                 WELLS =           0.0000
     HEAD DEP BOUNDS =         782.3885       HEAD DEP BOUNDS =           2.1421

           TOTAL OUT =         782.3885             TOTAL OUT =           2.1421

            IN - OUT =        -782.3885              IN - OUT =          -2.1421

 PERCENT DISCREPANCY =        -200.00     PERCENT DISCREPANCY =        -200.00






         TIME SUMMARY AT END OF TIME STEP    1 IN STRESS PERIOD    1
                    SECONDS     MINUTES      HOURS       DAYS        YEARS
                    -----------------------------------------------------------
   TIME STEP LENGTH 3.15576E+07 5.25960E+05  8766.0      365.25      1.0000    
 STRESS PERIOD TIME 3.15576E+07 5.25960E+05  8766.0      365.25      1.0000    
         TOTAL TIME 3.15576E+07 5.25960E+05  8766.0      365.25      1.0000    
1
1
                            STRESS PERIOD NO.    2, LENGTH =   365.2500    
                            -----------------------------------------------

                              NUMBER OF TIME STEPS =     1

                               MULTIPLIER FOR DELT =     1.000

                            INITIAL TIME STEP SIZE =   365.2500    

 WELL NO.  LAYER   ROW   COL   STRESS RATE         
 --------------------------------------------------
      1      1      5      6     -0.2000E+05

      1 WELL 

 REUSING NON-PARAMETER GHB CELLS FROM LAST STRESS PERIOD

     22 GHB CELLS

 SOLVING FOR HEAD 

    ------------------------------------------------
       NWT REQUIRED           59 OUTER ITERATIONS 
       AND A TOTAL OF        471 INNER ITERATIONS.
    ------------------------------------------------

 OUTPUT CONTROL FOR STRESS PERIOD    2   TIME STEP    1
    PRINT HEAD FOR ALL LAYERS
    SAVE HEAD FOR ALL LAYERS
    PRINT BUDGET
    SAVE BUDGET

 WELLS WITH REDUCED PUMPING FOR STRESS PERIOD     2 TIME STEP     1
   LAY   ROW   COL         APPL.Q          ACT.Q        GW-HEAD       CELL-BOT
     1     5     6  -0.200000E+05  -0.411166E+04   0.980817E+03   0.980000E+03

1
              HEAD IN LAYER   1 AT END OF TIME STEP     1 IN STRESS PERIOD    2
  -----------------------------------------------------------------------------

            1           2           3           4           5           6           7           8           9          10
           11
 ........................................................................................................................
   1   -1000.       987.8       987.7       987.6       987.4       987.3       987.4       987.6       987.7       987.8    
       -1000.    
   2   -1000.       987.0       986.8       986.6       986.4       986.3       986.4       986.6       986.8       987.0    
       -1000.    
   3   -1000.       986.9       986.7       986.4       986.0       985.8       986.0       986.4       986.7       986.9    
       -1000.    
   4   -1000.       986.9       986.7       986.2       985.5       984.6       985.5       986.2       986.7       986.9    
       -1000.    
   5   -1000.       987.1       986.9       986.3       984.9       980.8       984.9       986.3       986.9       987.1    
       -1000.    
   6   -1000.       987.6       987.4       987.0       986.3       985.4       986.3       987.0       987.4       987.6    
       -1000.    
   7   -1000.       988.1       988.0       987.8       987.4       987.2       987.4       987.8       988.0       988.1    
       -1000.    
   8   -1000.       988.7       988.6       988.5       988.4       988.3       988.4       988.5       988.6       988.7    
       -1000.    
   9   -1000.       989.3       989.3       989.2       989.2       989.1       989.2       989.2       989.3       989.3    
       -1000.    
  10   -1000.       989.9       989.9       989.9       989.8       989.8       989.8       989.9       989.9       989.9    
       -1000.    
  11   -1000.       990.5       990.5       990.5       990.5       990.5       990.5       990.5       990.5       990.5    
       -1000.    
  12   -1000.       991.0       991.0       991.0       991.0       991.0       991.0       991.0       991.0       991.0    
       -1000.    
  13   -1000.       991.5       991.5       991.5       991.5       991.5       991.5       991.5       991.5       991.5    
       -1000.    
  14   -1000.       992.0       992.0       992.0       992.0       992.0       992.0       992.0       992.0       992.0    
       -1000.    
  15   -1000.       992.5       992.5       992.5       992.5       992.5       992.5       992.5       992.5       992.5    
       -1000.    
  16   -1000.       992.9       992.9       992.9       992.9       992.9       992.9       992.9       992.9       992.9    
       -1000.    
  17   -1000.       993.3       993.3       993.3       993.3       993.3       993.3       993.3       993.3       993.3    
       -1000.    
  18   -1000.       993.7       993.7       993.7       993.7       993.7       993.7       993.7       993.7       993.7    
       -1000.    
  19   -1000.       994.1       994.1       994.1       994.1       994.1       994.1       994.1       994.1       994.1    
       -1000.    
  20   -1000.       994.4       994.4       994.4       994.4       994.4       994.4       994.4       994.4       994.4    
       -1000.    
  21   -1000.       994.8       994.8       994.8       994.8       994.8       994.8       994.8       994.8       994.8    
       -1000.    
  22   -1000.       999.8       999.8       999.8       999.8       999.8       999.8       999.8       999.8       999.8    
       -1000.    

 HEAD WILL BE SAVED ON UNIT   51 AT END OF TIME STEP    1, STRESS PERIOD    2
1
  VOLUMETRIC BUDGET FOR ENTIRE MODEL AT END OF TIME STEP    1, STRESS PERIOD   2
  ------------------------------------------------------------------------------

     CUMULATIVE VOLUMES      L**3       RATES FOR THIS TIME STEP      L**3/T
     ------------------                 ------------------------

           IN:                                      IN:
           ---                                      ---
             STORAGE =      480546.9375               STORAGE =        1315.6658
       CONSTANT HEAD =           0.0000         CONSTANT HEAD =           0.0000
               WELLS =           0.0000                 WELLS =           0.0000
     HEAD DEP BOUNDS =     1022101.3750       HEAD DEP BOUNDS =        2798.3611

            TOTAL IN =     1502648.2500              TOTAL IN =        4114.0269

          OUT:                                     OUT:
          ----                                     ----
             STORAGE =           0.0000               STORAGE =           0.0000
       CONSTANT HEAD =           0.0000         CONSTANT HEAD =           0.0000
               WELLS =     1501782.1250                 WELLS =        4111.6553
     HEAD DEP BOUNDS =         782.3885       HEAD DEP BOUNDS =           0.0000

           TOTAL OUT =     1502564.5000             TOTAL OUT =        4111.6553

            IN - OUT =          83.7500              IN - OUT =           2.3716

 PERCENT DISCREPANCY =           0.01     PERCENT DISCREPANCY =           0.06






         TIME SUMMARY AT END OF TIME STEP    1 IN STRESS PERIOD    2
                    SECONDS     MINUTES      HOURS       DAYS        YEARS
                    -----------------------------------------------------------
   TIME STEP LENGTH 3.15576E+07 5.25960E+05  8766.0      365.25      1.0000    
 STRESS PERIOD TIME 3.15576E+07 5.25960E+05  8766.0      365.25      1.0000    
         TOTAL TIME 6.31152E+07 1.05192E+06  17532.      730.50      2.0000    
1
1
                            STRESS PERIOD NO.    3, LENGTH =   365.2500    
                            -----------------------------------------------

                              NUMBER OF TIME STEPS =     1

                               MULTIPLIER FOR DELT =     1.000

                            INITIAL TIME STEP SIZE =   365.2500    

 WELL NO.  LAYER   ROW   COL   STRESS RATE         
 --------------------------------------------------
      1      1      5      6     -0.2000E+05

      1 WELL 

 REUSING NON-PARAMETER GHB CELLS FROM LAST STRESS PERIOD

     22 GHB CELLS

 SOLVING FOR HEAD 

    ------------------------------------------------
       NWT REQUIRED            3 OUTER ITERATIONS 
       AND A TOTAL OF         30 INNER ITERATIONS.
    ------------------------------------------------

 OUTPUT CONTROL FOR STRESS PERIOD    3   TIME STEP    1
    PRINT HEAD FOR ALL LAYERS
    SAVE HEAD FOR ALL LAYERS
    PRINT BUDGET
    SAVE BUDGET

 WELLS WITH REDUCED PUMPING FOR STRESS PERIOD     3 TIME STEP     1
   LAY   ROW   COL         APPL.Q          ACT.Q        GW-HEAD       CELL-BOT
     1     5     6  -0.200000E+05  -0.319128E+04   0.980708E+03   0.980000E+03

1
              HEAD IN LAYER   1 AT END OF TIME STEP     1 IN STRESS PERIOD    3
  -----------------------------------------------------------------------------

            1           2           3           4           5           6           7           8           9          10
           11
 ........................................................................................................................
   1   -1000.       987.1       987.0       986.9       986.8       986.7       986.8       986.9       987.0       987.1    
       -1000.    
   2   -1000.       986.1       986.0       985.9       985.6       985.5       985.6       985.9       986.0       986.1    
       -1000.    
   3   -1000.       986.0       985.9       985.6       985.3       985.1       985.3       985.6       985.9       986.0    
       -1000.    
   4   -1000.       986.1       985.9       985.5       984.8       984.0       984.8       985.5       985.9       986.1    
       -1000.    
   5   -1000.       986.3       986.1       985.5       984.3       980.7       984.3       985.5       986.1       986.3    
       -1000.    
   6   -1000.       986.7       986.5       986.2       985.5       984.8       985.5       986.2       986.5       986.7    
       -1000.    
   7   -1000.       987.2       987.1       986.9       986.6       986.4       986.6       986.9       987.1       987.2    
       -1000.    
   8   -1000.       987.8       987.8       987.6       987.5       987.4       987.5       987.6       987.8       987.8    
       -1000.    
   9   -1000.       988.4       988.4       988.3       988.3       988.2       988.3       988.3       988.4       988.4    
       -1000.    
  10   -1000.       989.0       989.0       989.0       988.9       988.9       988.9       989.0       989.0       989.0    
       -1000.    
  11   -1000.       989.6       989.6       989.6       989.5       989.5       989.5       989.6       989.6       989.6    
       -1000.    
  12   -1000.       990.1       990.1       990.1       990.1       990.1       990.1       990.1       990.1       990.1    
       -1000.    
  13   -1000.       990.7       990.7       990.7       990.6       990.6       990.6       990.7       990.7       990.7    
       -1000.    
  14   -1000.       991.2       991.2       991.2       991.2       991.2       991.2       991.2       991.2       991.2    
       -1000.    
  15   -1000.       991.6       991.6       991.6       991.6       991.6       991.6       991.6       991.6       991.6    
       -1000.    
  16   -1000.       992.1       992.1       992.1       992.1       992.1       992.1       992.1       992.1       992.1    
       -1000.    
  17   -1000.       992.5       992.5       992.5       992.5       992.5       992.5       992.5       992.5       992.5    
       -1000.    
  18   -1000.       993.0       993.0       993.0       993.0       993.0       993.0       993.0       993.0       993.0    
       -1000.    
  19   -1000.       993.4       993.4       993.4       993.4       993.4       993.4       993.4       993.4       993.4    
       -1000.    
  20   -1000.       993.8       993.8       993.8       993.8       993.8       993.8       993.8       993.8       993.8    
       -1000.    
  21   -1000.       994.2       994.2       994.2       994.2       994.2       994.2       994.2       994.2       994.2    
       -1000.    
  22   -1000.       999.7       999.7       999.7       999.7       999.7       999.7       999.7       999.7       999.7    
       -1000.    

 HEAD WILL BE SAVED ON UNIT   51 AT END OF TIME STEP    1, STRESS PERIOD    3
1
  VOLUMETRIC BUDGET FOR ENTIRE MODEL AT END OF TIME STEP    1, STRESS PERIOD   3
  ------------------------------------------------------------------------------

     CUMULATIVE VOLUMES      L**3       RATES FOR THIS TIME STEP      L**3/T
     ------------------                 ------------------------

           IN:                                      IN:
           ---                                      ---
             STORAGE =      521340.1875               STORAGE =         111.6858
       CONSTANT HEAD =           0.0000         CONSTANT HEAD =           0.0000
               WELLS =           0.0000                 WELLS =           0.0000
     HEAD DEP BOUNDS =     2146997.5000       HEAD DEP BOUNDS =        3079.7976

            TOTAL IN =     2668337.7500              TOTAL IN =        3191.4834

          OUT:                                     OUT:
          ----                                     ----
             STORAGE =           0.0000               STORAGE =           0.0000
       CONSTANT HEAD =           0.0000         CONSTANT HEAD =           0.0000
               WELLS =     2667396.5000                 WELLS =        3191.2781
     HEAD DEP BOUNDS =         782.3885       HEAD DEP BOUNDS =           0.0000

           TOTAL OUT =     2668179.0000             TOTAL OUT =        3191.2781

            IN - OUT =         158.7500              IN - OUT =           0.2053

 PERCENT DISCREPANCY =           0.01     PERCENT DISCREPANCY =           0.01






         TIME SUMMARY AT END OF TIME STEP    1 IN STRESS PERIOD    3
                    SECONDS     MINUTES      HOURS       DAYS        YEARS
                    -----------------------------------------------------------
   TIME STEP LENGTH 3.15576E+07 5.25960E+05  8766.0      365.25      1.0000    
 STRESS PERIOD TIME 3.15576E+07 5.25960E+05  8766.0      365.25      1.0000    
         TOTAL TIME 9.46728E+07 1.57788E+06  26298.      1095.8      3.0000    
1
1
                            STRESS PERIOD NO.    4, LENGTH =   365.2500    
                            -----------------------------------------------

                              NUMBER OF TIME STEPS =     1

                               MULTIPLIER FOR DELT =     1.000

                            INITIAL TIME STEP SIZE =   365.2500    

 REUSING NON-PARAMETER WELLS FROM LAST STRESS PERIOD

      1 WELL 

 REUSING NON-PARAMETER GHB CELLS FROM LAST STRESS PERIOD

     22 GHB CELLS

 SOLVING FOR HEAD 

    ------------------------------------------------
       NWT REQUIRED            2 OUTER ITERATIONS 
       AND A TOTAL OF         19 INNER ITERATIONS.
    ------------------------------------------------

 OUTPUT CONTROL FOR STRESS PERIOD    4   TIME STEP    1
    PRINT HEAD FOR ALL LAYERS
    SAVE HEAD FOR ALL LAYERS
    PRINT BUDGET
    SAVE BUDGET

 WELLS WITH REDUCED PUMPING FOR STRESS PERIOD     4 TIME STEP     1
   LAY   ROW   COL         APPL.Q          ACT.Q        GW-HEAD       CELL-BOT
     1     5     6  -0.200000E+05  -0.311790E+04   0.980699E+03   0.980000E+03

1
              HEAD IN LAYER   1 AT END OF TIME STEP     1 IN STRESS PERIOD    4
  -----------------------------------------------------------------------------

            1           2           3           4           5           6           7           8           9          10
           11
 ........................................................................................................................
   1   -1000.       987.0       987.0       986.8       986.7       986.7       986.7       986.8       987.0       987.0    
       -1000.    
   2   -1000.       986.1       986.0       985.8       985.6       985.5       985.6       985.8       986.0       986.1    
       -1000.    
   3   -1000.       986.0       985.8       985.6       985.2       985.0       985.2       985.6       985.8       986.0    
       -1000.    
   4   -1000.       986.0       985.8       985.4       984.8       984.0       984.8       985.4       985.8       986.0    
       -1000.    
   5   -1000.       986.2       986.0       985.5       984.3       980.7       984.3       985.5       986.0       986.2    
       -1000.    
   6   -1000.       986.6       986.5       986.1       985.5       984.7       985.5       986.1       986.5       986.6    
       -1000.    
   7   -1000.       987.1       987.0       986.8       986.6       986.3       986.6       986.8       987.0       987.1    
       -1000.    
   8   -1000.       987.7       987.7       987.6       987.4       987.4       987.4       987.6       987.7       987.7    
       -1000.    
   9   -1000.       988.3       988.3       988.2       988.2       988.2       988.2       988.2       988.3       988.3    
       -1000.    
  10   -1000.       988.9       988.9       988.9       988.9       988.8       988.9       988.9       988.9       988.9    
       -1000.    
  11   -1000.       989.5       989.5       989.5       989.5       989.5       989.5       989.5       989.5       989.5    
       -1000.    
  12   -1000.       990.0       990.0       990.0       990.0       990.0       990.0       990.0       990.0       990.0    
       -1000.    
  13   -1000.       990.6       990.6       990.6       990.6       990.6       990.6       990.6       990.6       990.6    
       -1000.    
  14   -1000.       991.1       991.1       991.1       991.1       991.1       991.1       991.1       991.1       991.1    
       -1000.    
  15   -1000.       991.6       991.6       991.6       991.6       991.6       991.6       991.6       991.6       991.6    
       -1000.    
  16   -1000.       992.0       992.0       992.0       992.0       992.0       992.0       992.0       992.0       992.0    
       -1000.    
  17   -1000.       992.5       992.5       992.5       992.5       992.5       992.5       992.5       992.5       992.5    
       -1000.    
  18   -1000.       992.9       992.9       992.9       992.9       992.9       992.9       992.9       992.9       992.9    
       -1000.    
  19   -1000.       993.3       993.3       993.3       993.3       993.3       993.3       993.3       993.3       993.3    
       -1000.    
  20   -1000.       993.7       993.7       993.7       993.7       993.7       993.7       993.7       993.7       993.7    
       -1000.    
  21   -1000.       994.1       994.1       994.1       994.1       994.1       994.1       994.1       994.1       994.1    
       -1000.    
  22   -1000.       999.7       999.7       999.7       999.7       999.7       999.7       999.7       999.7       999.7    
       -1000.    

 HEAD WILL BE SAVED ON UNIT   51 AT END OF TIME STEP    1, STRESS PERIOD    4
1
  VOLUMETRIC BUDGET FOR ENTIRE MODEL AT END OF TIME STEP    1, STRESS PERIOD   4
  ------------------------------------------------------------------------------

     CUMULATIVE VOLUMES      L**3       RATES FOR THIS TIME STEP      L**3/T
     ------------------                 ------------------------

           IN:                                      IN:
           ---                                      ---
             STORAGE =      525216.3125               STORAGE =          10.6123
       CONSTANT HEAD =           0.0000         CONSTANT HEAD =           0.0000
               WELLS =           0.0000                 WELLS =           0.0000
     HEAD DEP BOUNDS =     3282129.0000       HEAD DEP BOUNDS =        3107.8208

            TOTAL IN =     3807345.2500              TOTAL IN =        3118.4331

          OUT:                                     OUT:
          ----                                     ----
             STORAGE =           0.0000               STORAGE =           0.0000
       CONSTANT HEAD =           0.0000         CONSTANT HEAD =           0.0000
               WELLS =     3806208.5000                 WELLS =        3117.8975
     HEAD DEP BOUNDS =         782.3885       HEAD DEP BOUNDS =           0.0000

           TOTAL OUT =     3806991.0000             TOTAL OUT =        3117.8975

            IN - OUT =         354.2500              IN - OUT =           0.5356

 PERCENT DISCREPANCY =           0.01     PERCENT DISCREPANCY =           0.02






         TIME SUMMARY AT END OF TIME STEP    1 IN STRESS PERIOD    4
                    SECONDS     MINUTES      HOURS       DAYS        YEARS
                    -----------------------------------------------------------
   TIME STEP LENGTH 3.15576E+07 5.25960E+05  8766.0      365.25      1.0000    
 STRESS PERIOD TIME 3.15576E+07 5.25960E+05  8766.0      365.25      1.0000    
         TOTAL TIME 1.26230E+08 2.10384E+06  35064.      1461.0      4.0000    
1
1
                            STRESS PERIOD NO.    5, LENGTH =   365.2500    
                            -----------------------------------------------

                              NUMBER OF TIME STEPS =     1

                               MULTIPLIER FOR DELT =     1.000

                            INITIAL TIME STEP SIZE =   365.2500    

 REUSING NON-PARAMETER WELLS FROM LAST STRESS PERIOD

      1 WELL 

 REUSING NON-PARAMETER GHB CELLS FROM LAST STRESS PERIOD

     22 GHB CELLS

 SOLVING FOR HEAD 

    ------------------------------------------------
       NWT REQUIRED            1 OUTER ITERATIONS 
       AND A TOTAL OF          9 INNER ITERATIONS.
    ------------------------------------------------

 OUTPUT CONTROL FOR STRESS PERIOD    5   TIME STEP    1
    PRINT HEAD FOR ALL LAYERS
    SAVE HEAD FOR ALL LAYERS
    PRINT BUDGET
    SAVE BUDGET

 WELLS WITH REDUCED PUMPING FOR STRESS PERIOD     5 TIME STEP     1
   LAY   ROW   COL         APPL.Q          ACT.Q        GW-HEAD       CELL-BOT
     1     5     6  -0.200000E+05  -0.311074E+04   0.980698E+03   0.980000E+03

1
              HEAD IN LAYER   1 AT END OF TIME STEP     1 IN STRESS PERIOD    5
  -----------------------------------------------------------------------------

            1           2           3           4           5           6           7           8           9          10
           11
 ........................................................................................................................
   1   -1000.       987.0       987.0       986.8       986.7       986.6       986.7       986.8       987.0       987.0    
       -1000.    
   2   -1000.       986.1       986.0       985.8       985.6       985.5       985.6       985.8       986.0       986.1    
       -1000.    
   3   -1000.       986.0       985.8       985.6       985.2       985.0       985.2       985.6       985.8       986.0    
       -1000.    
   4   -1000.       986.0       985.8       985.4       984.8       983.9       984.8       985.4       985.8       986.0    
       -1000.    
   5   -1000.       986.2       986.0       985.5       984.3       980.7       984.3       985.5       986.0       986.2    
       -1000.    
   6   -1000.       986.6       986.4       986.1       985.5       984.7       985.5       986.1       986.4       986.6    
       -1000.    
   7   -1000.       987.1       987.0       986.8       986.5       986.3       986.5       986.8       987.0       987.1    
       -1000.    
   8   -1000.       987.7       987.7       987.6       987.4       987.4       987.4       987.6       987.7       987.7    
       -1000.    
   9   -1000.       988.3       988.3       988.2       988.2       988.1       988.2       988.2       988.3       988.3    
       -1000.    
  10   -1000.       988.9       988.9       988.9       988.8       988.8       988.8       988.9       988.9       988.9    
       -1000.    
  11   -1000.       989.5       989.5       989.5       989.5       989.4       989.5       989.5       989.5       989.5    
       -1000.    
  12   -1000.       990.0       990.0       990.0       990.0       990.0       990.0       990.0       990.0       990.0    
       -1000.    
  13   -1000.       990.6       990.6       990.6       990.6       990.6       990.6       990.6       990.6       990.6    
       -1000.    
  14   -1000.       991.1       991.1       991.1       991.1       991.1       991.1       991.1       991.1       991.1    
       -1000.    
  15   -1000.       991.5       991.5       991.5       991.5       991.5       991.5       991.5       991.5       991.5    
       -1000.    
  16   -1000.       992.0       992.0       992.0       992.0       992.0       992.0       992.0       992.0       992.0    
       -1000.    
  17   -1000.       992.5       992.5       992.5       992.5       992.5       992.5       992.5       992.5       992.5    
       -1000.    
  18   -1000.       992.9       992.9       992.9       992.9       992.9       992.9       992.9       992.9       992.9    
       -1000.    
  19   -1000.       993.3       993.3       993.3       993.3       993.3       993.3       993.3       993.3       993.3    
       -1000.    
  20   -1000.       993.7       993.7       993.7       993.7       993.7       993.7       993.7       993.7       993.7    
       -1000.    
  21   -1000.       994.1       994.1       994.1       994.1       994.1       994.1       994.1       994.1       994.1    
       -1000.    
  22   -1000.       999.7       999.7       999.7       999.7       999.7       999.7       999.7       999.7       999.7    
       -1000.    

 HEAD WILL BE SAVED ON UNIT   51 AT END OF TIME STEP    1, STRESS PERIOD    5
1
  VOLUMETRIC BUDGET FOR ENTIRE MODEL AT END OF TIME STEP    1, STRESS PERIOD   5
  ------------------------------------------------------------------------------

     CUMULATIVE VOLUMES      L**3       RATES FOR THIS TIME STEP      L**3/T
     ------------------                 ------------------------

           IN:                                      IN:
           ---                                      ---
             STORAGE =      525606.5625               STORAGE =           1.0684
       CONSTANT HEAD =           0.0000         CONSTANT HEAD =           0.0000
               WELLS =           0.0000                 WELLS =           0.0000
     HEAD DEP BOUNDS =     4418304.5000       HEAD DEP BOUNDS =        3110.6792

            TOTAL IN =     4943911.0000              TOTAL IN =        3111.7476

          OUT:                                     OUT:
          ----                                     ----
             STORAGE =           0.0000               STORAGE =           0.0000
       CONSTANT HEAD =           0.0000         CONSTANT HEAD =           0.0000
               WELLS =     4942407.5000                 WELLS =        3110.7432
     HEAD DEP BOUNDS =         782.3885       HEAD DEP BOUNDS =           0.0000

           TOTAL OUT =     4943190.0000             TOTAL OUT =        3110.7432

            IN - OUT =         721.0000              IN - OUT =           1.0044

 PERCENT DISCREPANCY =           0.01     PERCENT DISCREPANCY =           0.03






         TIME SUMMARY AT END OF TIME STEP    1 IN STRESS PERIOD    5
                    SECONDS     MINUTES      HOURS       DAYS        YEARS
                    -----------------------------------------------------------
   TIME STEP LENGTH 3.15576E+07 5.25960E+05  8766.0      365.25      1.0000    
 STRESS PERIOD TIME 3.15576E+07 5.25960E+05  8766.0      365.25      1.0000    
         TOTAL TIME 1.57788E+08 2.62980E+06  43830.      1826.2      5.0000    
1
1
                            STRESS PERIOD NO.    6, LENGTH =   365.2500    
                            -----------------------------------------------

                              NUMBER OF TIME STEPS =     1

                               MULTIPLIER FOR DELT =     1.000

                            INITIAL TIME STEP SIZE =   365.2500    

 REUSING NON-PARAMETER WELLS FROM LAST STRESS PERIOD

      1 WELL 

 REUSING NON-PARAMETER GHB CELLS FROM LAST STRESS PERIOD

     22 GHB CELLS

 SOLVING FOR HEAD 

    ------------------------------------------------
       NWT REQUIRED            1 OUTER ITERATIONS 
       AND A TOTAL OF          4 INNER ITERATIONS.
    ------------------------------------------------

 OUTPUT CONTROL FOR STRESS PERIOD    6   TIME STEP    1
    PRINT HEAD FOR ALL LAYERS
    SAVE HEAD FOR ALL LAYERS
    PRINT BUDGET
    SAVE BUDGET

 WELLS WITH REDUCED PUMPING FOR STRESS PERIOD     6 TIME STEP     1
   LAY   ROW   COL         APPL.Q          ACT.Q        GW-HEAD       CELL-BOT
     1     5     6  -0.200000E+05  -0.311070E+04   0.980698E+03   0.980000E+03

1
              HEAD IN LAYER   1 AT END OF TIME STEP     1 IN STRESS PERIOD    6
  -----------------------------------------------------------------------------

            1           2           3           4           5           6           7           8           9          10
           11
 ........................................................................................................................
   1   -1000.       987.0       987.0       986.8       986.7       986.6       986.7       986.8       987.0       987.0    
       -1000.    
   2   -1000.       986.1       986.0       985.8       985.6       985.5       985.6       985.8       986.0       986.1    
       -1000.    
   3   -1000.       986.0       985.8       985.6       985.2       985.0       985.2       985.6       985.8       986.0    
       -1000.    
   4   -1000.       986.0       985.8       985.4       984.8       983.9       984.8       985.4       985.8       986.0    
       -1000.    
   5   -1000.       986.2       986.0       985.5       984.3       980.7       984.3       985.5       986.0       986.2    
       -1000.    
   6   -1000.       986.6       986.4       986.1       985.5       984.7       985.5       986.1       986.4       986.6    
       -1000.    
   7   -1000.       987.1       987.0       986.8       986.5       986.3       986.5       986.8       987.0       987.1    
       -1000.    
   8   -1000.       987.7       987.7       987.6       987.4       987.4       987.4       987.6       987.7       987.7    
       -1000.    
   9   -1000.       988.3       988.3       988.2       988.2       988.1       988.2       988.2       988.3       988.3    
       -1000.    
  10   -1000.       988.9       988.9       988.9       988.8       988.8       988.8       988.9       988.9       988.9    
       -1000.    
  11   -1000.       989.5       989.5       989.5       989.5       989.4       989.5       989.5       989.5       989.5    
       -1000.    
  12   -1000.       990.0       990.0       990.0       990.0       990.0       990.0       990.0       990.0       990.0    
       -1000.    
  13   -1000.       990.6       990.6       990.6       990.6       990.6       990.6       990.6       990.6       990.6    
       -1000.    
  14   -1000.       991.1       991.1       991.1       991.1       991.1       991.1       991.1       991.1       991.1    
       -1000.    
  15   -1000.       991.5       991.5       991.5       991.5       991.5       991.5       991.5       991.5       991.5    
       -1000.    
  16   -1000.       992.0       992.0       992.0       992.0       992.0       992.0       992.0       992.0       992.0    
       -1000.    
  17   -1000.       992.5       992.5       992.5       992.5       992.5       992.5       992.5       992.5       992.5    
       -1000.    
  18   -1000.       992.9       992.9       992.9       992.9       992.9       992.9       992.9       992.9       992.9    
       -1000.    
  19   -1000.       993.3       993.3       993.3       993.3       993.3       993.3       993.3       993.3       993.3    
       -1000.    
  20   -1000.       993.7       993.7       993.7       993.7       993.7       993.7       993.7       993.7       993.7    
       -1000.    
  21   -1000.       994.1       994.1       994.1       994.1       994.1       994.1       994.1       994.1       994.1    
       -1000.    
  22   -1000.       999.7       999.7       999.7       999.7       999.7       999.7       999.7       999.7       999.7    
       -1000.    

 HEAD WILL BE SAVED ON UNIT   51 AT END OF TIME STEP    1, STRESS PERIOD    6
1
  VOLUMETRIC BUDGET FOR ENTIRE MODEL AT END OF TIME STEP    1, STRESS PERIOD   6
  ------------------------------------------------------------------------------

     CUMULATIVE VOLUMES      L**3       RATES FOR THIS TIME STEP      L**3/T
     ------------------                 ------------------------

           IN:                                      IN:
           ---                                      ---
             STORAGE =      525609.1875               STORAGE =       7.1647E-03
       CONSTANT HEAD =           0.0000         CONSTANT HEAD =           0.0000
               WELLS =           0.0000                 WELLS =           0.0000
     HEAD DEP BOUNDS =     5554487.0000       HEAD DEP BOUNDS =        3110.6987

            TOTAL IN =     6080096.0000              TOTAL IN =        3110.7058

          OUT:                                     OUT:
          ----                                     ----
             STORAGE =           0.0000               STORAGE =           0.0000
       CONSTANT HEAD =           0.0000         CONSTANT HEAD =           0.0000
               WELLS =     6078590.5000                 WELLS =        3110.6992
     HEAD DEP BOUNDS =         782.3885       HEAD DEP BOUNDS =           0.0000

           TOTAL OUT =     6079373.0000             TOTAL OUT =        3110.6992

            IN - OUT =         723.0000              IN - OUT =       6.5918E-03

 PERCENT DISCREPANCY =           0.01     PERCENT DISCREPANCY =           0.00






         TIME SUMMARY AT END OF TIME STEP    1 IN STRESS PERIOD    6
                    SECONDS     MINUTES      HOURS       DAYS        YEARS
                    -----------------------------------------------------------
   TIME STEP LENGTH 3.15576E+07 5.25960E+05  8766.0      365.25      1.0000    
 STRESS PERIOD TIME 3.15576E+07 5.25960E+05  8766.0      365.25      1.0000    
         TOTAL TIME 1.89346E+08 3.15576E+06  52596.      2191.5      6.0000    
1
1
                            STRESS PERIOD NO.    7, LENGTH =   365.2500    
                            -----------------------------------------------

                              NUMBER OF TIME STEPS =     1

                               MULTIPLIER FOR DELT =     1.000

                            INITIAL TIME STEP SIZE =   365.2500    

 REUSING NON-PARAMETER WELLS FROM LAST STRESS PERIOD

      1 WELL 

 REUSING NON-PARAMETER GHB CELLS FROM LAST STRESS PERIOD

     22 GHB CELLS

 SOLVING FOR HEAD 

    ------------------------------------------------
       NWT REQUIRED            1 OUTER ITERATIONS 
       AND A TOTAL OF          1 INNER ITERATIONS.
    ------------------------------------------------

 OUTPUT CONTROL FOR STRESS PERIOD    7   TIME STEP    1
    PRINT HEAD FOR ALL LAYERS
    SAVE HEAD FOR ALL LAYERS
    PRINT BUDGET
    SAVE BUDGET

 WELLS WITH REDUCED PUMPING FOR STRESS PERIOD     7 TIME STEP     1
   LAY   ROW   COL         APPL.Q          ACT.Q        GW-HEAD       CELL-BOT
     1     5     6  -0.200000E+05  -0.311070E+04   0.980698E+03   0.980000E+03

1
              HEAD IN LAYER   1 AT END OF TIME STEP     1 IN STRESS PERIOD    7
  -----------------------------------------------------------------------------

            1           2           3           4           5           6           7           8           9          10
           11
 ........................................................................................................................
   1   -1000.       987.0       987.0       986.8       986.7       986.6       986.7       986.8       987.0       987.0    
       -1000.    
   2   -1000.       986.1       986.0       985.8       985.6       985.5       985.6       985.8       986.0       986.1    
       -1000.    
   3   -1000.       986.0       985.8       985.6       985.2       985.0       985.2       985.6       985.8       986.0    
       -1000.    
   4   -1000.       986.0       985.8       985.4       984.8       983.9       984.8       985.4       985.8       986.0    
       -1000.    
   5   -1000.       986.2       986.0       985.5       984.3       980.7       984.3       985.5       986.0       986.2    
       -1000.    
   6   -1000.       986.6       986.4       986.1       985.5       984.7       985.5       986.1       986.4       986.6    
       -1000.    
   7   -1000.       987.1       987.0       986.8       986.5       986.3       986.5       986.8       987.0       987.1    
       -1000.    
   8   -1000.       987.7       987.7       987.6       987.4       987.4       987.4       987.6       987.7       987.7    
       -1000.    
   9   -1000.       988.3       988.3       988.2       988.2       988.1       988.2       988.2       988.3       988.3    
       -1000.    
  10   -1000.       988.9       988.9       988.9       988.8       988.8       988.8       988.9       988.9       988.9    
       -1000.    
  11   -1000.       989.5       989.5       989.5       989.5       989.4       989.5       989.5       989.5       989.5    
       -1000.    
  12   -1000.       990.0       990.0       990.0       990.0       990.0       990.0       990.0       990.0       990.0    
       -1000.    
  13   -1000.       990.6       990.6       990.6       990.6       990.6       990.6       990.6       990.6       990.6    
       -1000.    
  14   -1000.       991.1       991.1       991.1       991.1       991.1       991.1       991.1       991.1       991.1    
       -1000.    
  15   -1000.       991.5       991.5       991.5       991.5       991.5       991.5       991.5       991.5       991.5    
       -1000.    
  16   -1000.       992.0       992.0       992.0       992.0       992.0       992.0       992.0       992.0       992.0    
       -1000.    
  17   -1000.       992.5       992.5       992.5       992.5       992.5       992.5       992.5       992.5       992.5    
       -1000.    
  18   -1000.       992.9       992.9       992.9       992.9       992.9       992.9       992.9       992.9       992.9    
       -1000.    
  19   -1000.       993.3       993.3       993.3       993.3       993.3       993.3       993.3       993.3       993.3    
       -1000.    
  20   -1000.       993.7       993.7       993.7       993.7       993.7       993.7       993.7       993.7       993.7    
       -1000.    
  21   -1000.       994.1       994.1       994.1       994.1       994.1       994.1       994.1       994.1       994.1    
       -1000.    
  22   -1000.       999.7       999.7       999.7       999.7       999.7       999.7       999.7       999.7       999.7    
       -1000.    

 HEAD WILL BE SAVED ON UNIT   51 AT END OF TIME STEP    1, STRESS PERIOD    7
1
  VOLUMETRIC BUDGET FOR ENTIRE MODEL AT END OF TIME STEP    1, STRESS PERIOD   7
  ------------------------------------------------------------------------------

     CUMULATIVE VOLUMES      L**3       RATES FOR THIS TIME STEP      L**3/T
     ------------------                 ------------------------

           IN:                                      IN:
           ---                                      ---
             STORAGE =      525609.2500               STORAGE =       9.5769E-05
       CONSTANT HEAD =           0.0000         CONSTANT HEAD =           0.0000
               WELLS =           0.0000                 WELLS =           0.0000
     HEAD DEP BOUNDS =     6690670.0000       HEAD DEP BOUNDS =        3110.6990

            TOTAL IN =     7216279.0000              TOTAL IN =        3110.6990

          OUT:                                     OUT:
          ----                                     ----
             STORAGE =       3.4855E-02               STORAGE =       9.5428E-05
       CONSTANT HEAD =           0.0000         CONSTANT HEAD =           0.0000
               WELLS =     7214773.5000                 WELLS =        3110.6997
     HEAD DEP BOUNDS =         782.3885       HEAD DEP BOUNDS =           0.0000

           TOTAL OUT =     7215556.0000             TOTAL OUT =        3110.6997

            IN - OUT =         723.0000              IN - OUT =      -7.3242E-04

 PERCENT DISCREPANCY =           0.01     PERCENT DISCREPANCY =          -0.00






         TIME SUMMARY AT END OF TIME STEP    1 IN STRESS PERIOD    7
                    SECONDS     MINUTES      HOURS       DAYS        YEARS
                    -----------------------------------------------------------
   TIME STEP LENGTH 3.15576E+07 5.25960E+05  8766.0      365.25      1.0000    
 STRESS PERIOD TIME 3.15576E+07 5.25960E+05  8766.0      365.25      1.0000    
         TOTAL TIME 2.20903E+08 3.68172E+06  61362.      2556.8      7.0000    
1
1
                            STRESS PERIOD NO.    8, LENGTH =   365.2500    
                            -----------------------------------------------

                              NUMBER OF TIME STEPS =     1

                               MULTIPLIER FOR DELT =     1.000

                            INITIAL TIME STEP SIZE =   365.2500    

 REUSING NON-PARAMETER WELLS FROM LAST STRESS PERIOD

      1 WELL 

 REUSING NON-PARAMETER GHB CELLS FROM LAST STRESS PERIOD

     22 GHB CELLS

 SOLVING FOR HEAD 

    ------------------------------------------------
       NWT REQUIRED            1 OUTER ITERATIONS 
       AND A TOTAL OF          1 INNER ITERATIONS.
    ------------------------------------------------

 OUTPUT CONTROL FOR STRESS PERIOD    8   TIME STEP    1
    PRINT HEAD FOR ALL LAYERS
    SAVE HEAD FOR ALL LAYERS
    PRINT BUDGET
    SAVE BUDGET

 WELLS WITH REDUCED PUMPING FOR STRESS PERIOD     8 TIME STEP     1
   LAY   ROW   COL         APPL.Q          ACT.Q        GW-HEAD       CELL-BOT
     1     5     6  -0.200000E+05  -0.311070E+04   0.980698E+03   0.980000E+03

1
              HEAD IN LAYER   1 AT END OF TIME STEP     1 IN STRESS PERIOD    8
  -----------------------------------------------------------------------------

            1           2           3           4           5           6           7           8           9          10
           11
 ........................................................................................................................
   1   -1000.       987.0       987.0       986.8       986.7       986.6       986.7       986.8       987.0       987.0    
       -1000.    
   2   -1000.       986.1       986.0       985.8       985.6       985.5       985.6       985.8       986.0       986.1    
       -1000.    
   3   -1000.       986.0       985.8       985.6       985.2       985.0       985.2       985.6       985.8       986.0    
       -1000.    
   4   -1000.       986.0       985.8       985.4       984.8       983.9       984.8       985.4       985.8       986.0    
       -1000.    
   5   -1000.       986.2       986.0       985.5       984.3       980.7       984.3       985.5       986.0       986.2    
       -1000.    
   6   -1000.       986.6       986.4       986.1       985.5       984.7       985.5       986.1       986.4       986.6    
       -1000.    
   7   -1000.       987.1       987.0       986.8       986.5       986.3       986.5       986.8       987.0       987.1    
       -1000.    
   8   -1000.       987.7       987.7       987.6       987.4       987.4       987.4       987.6       987.7       987.7    
       -1000.    
   9   -1000.       988.3       988.3       988.2       988.2       988.1       988.2       988.2       988.3       988.3    
       -1000.    
  10   -1000.       988.9       988.9       988.9       988.8       988.8       988.8       988.9       988.9       988.9    
       -1000.    
  11   -1000.       989.5       989.5       989.5       989.5       989.4       989.5       989.5       989.5       989.5    
       -1000.    
  12   -1000.       990.0       990.0       990.0       990.0       990.0       990.0       990.0       990.0       990.0    
       -1000.    
  13   -1000.       990.6       990.6       990.6       990.6       990.6       990.6       990.6       990.6       990.6    
       -1000.    
  14   -1000.       991.1       991.1       991.1       991.1       991.1       991.1       991.1       991.1       991.1    
       -1000.    
  15   -1000.       991.5       991.5       991.5       991.5       991.5       991.5       991.5       991.5       991.5    
       -1000.    
  16   -1000.       992.0       992.0       992.0       992.0       992.0       992.0       992.0       992.0       992.0    
       -1000.    
  17   -1000.       992.5       992.5       992.5       992.5       992.5       992.5       992.5       992.5       992.5    
       -1000.    
  18   -1000.       992.9       992.9       992.9       992.9       992.9       992.9       992.9       992.9       992.9    
       -1000.    
  19   -1000.       993.3       993.3       993.3       993.3       993.3       993.3       993.3       993.3       993.3    
       -1000.    
  20   -1000.       993.7       993.7       993.7       993.7       993.7       993.7       993.7       993.7       993.7    
       -1000.    
  21   -1000.       994.1       994.1       994.1       994.1       994.1       994.1       994.1       994.1       994.1    
       -1000.    
  22   -1000.       999.7       999.7       999.7       999.7       999.7       999.7       999.7       999.7       999.7    
       -1000.    

 HEAD WILL BE SAVED ON UNIT   51 AT END OF TIME STEP    1, STRESS PERIOD    8
1
  VOLUMETRIC BUDGET FOR ENTIRE MODEL AT END OF TIME STEP    1, STRESS PERIOD   8
  ------------------------------------------------------------------------------

     CUMULATIVE VOLUMES      L**3       RATES FOR THIS TIME STEP      L**3/T
     ------------------                 ------------------------

           IN:                                      IN:
           ---                                      ---
             STORAGE =      525609.3125               STORAGE =       9.4617E-05
       CONSTANT HEAD =           0.0000         CONSTANT HEAD =           0.0000
               WELLS =           0.0000                 WELLS =           0.0000
     HEAD DEP BOUNDS =     7826853.0000       HEAD DEP BOUNDS =        3110.6992

            TOTAL IN =     8352462.5000              TOTAL IN =        3110.6992

          OUT:                                     OUT:
          ----                                     ----
             STORAGE =       6.7822E-02               STORAGE =       9.0258E-05
       CONSTANT HEAD =           0.0000         CONSTANT HEAD =           0.0000
               WELLS =     8350956.5000                 WELLS =        3110.7000
     HEAD DEP BOUNDS =         782.3885       HEAD DEP BOUNDS =           0.0000

           TOTAL OUT =     8351739.0000             TOTAL OUT =        3110.7000

            IN - OUT =         723.5000              IN - OUT =      -7.3242E-04

 PERCENT DISCREPANCY =           0.01     PERCENT DISCREPANCY =          -0.00






         TIME SUMMARY AT END OF TIME STEP    1 IN STRESS PERIOD    8
                    SECONDS     MINUTES      HOURS       DAYS        YEARS
                    -----------------------------------------------------------
   TIME STEP LENGTH 3.15576E+07 5.25960E+05  8766.0      365.25      1.0000    
 STRESS PERIOD TIME 3.15576E+07 5.25960E+05  8766.0      365.25      1.0000    
         TOTAL TIME 2.52461E+08 4.20768E+06  70128.      2922.0      8.0000    
1
1
                            STRESS PERIOD NO.    9, LENGTH =   365.2500    
                            -----------------------------------------------

                              NUMBER OF TIME STEPS =     1

                               MULTIPLIER FOR DELT =     1.000

                            INITIAL TIME STEP SIZE =   365.2500    

 REUSING NON-PARAMETER WELLS FROM LAST STRESS PERIOD

      1 WELL 

 REUSING NON-PARAMETER GHB CELLS FROM LAST STRESS PERIOD

     22 GHB CELLS

 SOLVING FOR HEAD 

    ------------------------------------------------
       NWT REQUIRED            1 OUTER ITERATIONS 
       AND A TOTAL OF          1 INNER ITERATIONS.
    ------------------------------------------------

 OUTPUT CONTROL FOR STRESS PERIOD    9   TIME STEP    1
    PRINT HEAD FOR ALL LAYERS
    SAVE HEAD FOR ALL LAYERS
    PRINT BUDGET
    SAVE BUDGET

 WELLS WITH REDUCED PUMPING FOR STRESS PERIOD     9 TIME STEP     1
   LAY   ROW   COL         APPL.Q          ACT.Q        GW-HEAD       CELL-BOT
     1     5     6  -0.200000E+05  -0.311070E+04   0.980698E+03   0.980000E+03

1
              HEAD IN LAYER   1 AT END OF TIME STEP     1 IN STRESS PERIOD    9
  -----------------------------------------------------------------------------

            1           2           3           4           5           6           7           8           9          10
           11
 ........................................................................................................................
   1   -1000.       987.0       987.0       986.8       986.7       986.6       986.7       986.8       987.0       987.0    
       -1000.    
   2   -1000.       986.1       986.0       985.8       985.6       985.5       985.6       985.8       986.0       986.1    
       -1000.    
   3   -1000.       986.0       985.8       985.6       985.2       985.0       985.2       985.6       985.8       986.0    
       -1000.    
   4   -1000.       986.0       985.8       985.4       984.8       983.9       984.8       985.4       985.8       986.0    
       -1000.    
   5   -1000.       986.2       986.0       985.5       984.3       980.7       984.3       985.5       986.0       986.2    
       -1000.    
   6   -1000.       986.6       986.4       986.1       985.5       984.7       985.5       986.1       986.4       986.6    
       -1000.    
   7   -1000.       987.1       987.0       986.8       986.5       986.3       986.5       986.8       987.0       987.1    
       -1000.    
   8   -1000.       987.7       987.7       987.6       987.4       987.4       987.4       987.6       987.7       987.7    
       -1000.    
   9   -1000.       988.3       988.3       988.2       988.2       988.1       988.2       988.2       988.3       988.3    
       -1000.    
  10   -1000.       988.9       988.9       988.9       988.8       988.8       988.8       988.9       988.9       988.9    
       -1000.    
  11   -1000.       989.5       989.5       989.5       989.5       989.4       989.5       989.5       989.5       989.5    
       -1000.    
  12   -1000.       990.0       990.0       990.0       990.0       990.0       990.0       990.0       990.0       990.0    
       -1000.    
  13   -1000.       990.6       990.6       990.6       990.6       990.6       990.6       990.6       990.6       990.6    
       -1000.    
  14   -1000.       991.1       991.1       991.1       991.1       991.1       991.1       991.1       991.1       991.1    
       -1000.    
  15   -1000.       991.5       991.5       991.5       991.5       991.5       991.5       991.5       991.5       991.5    
       -1000.    
  16   -1000.       992.0       992.0       992.0       992.0       992.0       992.0       992.0       992.0       992.0    
       -1000.    
  17   -1000.       992.5       992.5       992.5       992.5       992.5       992.5       992.5       992.5       992.5    
       -1000.    
  18   -1000.       992.9       992.9       992.9       992.9       992.9       992.9       992.9       992.9       992.9    
       -1000.    
  19   -1000.       993.3       993.3       993.3       993.3       993.3       993.3       993.3       993.3       993.3    
       -1000.    
  20   -1000.       993.7       993.7       993.7       993.7       993.7       993.7       993.7       993.7       993.7    
       -1000.    
  21   -1000.       994.1       994.1       994.1       994.1       994.1       994.1       994.1       994.1       994.1    
       -1000.    
  22   -1000.       999.7       999.7       999.7       999.7       999.7       999.7       999.7       999.7       999.7    
       -1000.    

 HEAD WILL BE SAVED ON UNIT   51 AT END OF TIME STEP    1, STRESS PERIOD    9
1
  VOLUMETRIC BUDGET FOR ENTIRE MODEL AT END OF TIME STEP    1, STRESS PERIOD   9
  ------------------------------------------------------------------------------

     CUMULATIVE VOLUMES      L**3       RATES FOR THIS TIME STEP      L**3/T
     ------------------                 ------------------------

           IN:                                      IN:
           ---                                      ---
             STORAGE =      525609.3750               STORAGE =       9.7993E-05
       CONSTANT HEAD =           0.0000         CONSTANT HEAD =           0.0000
               WELLS =           0.0000                 WELLS =           0.0000
     HEAD DEP BOUNDS =     8963036.0000       HEAD DEP BOUNDS =        3110.6992

            TOTAL IN =     9488645.0000              TOTAL IN =        3110.6992

          OUT:                                     OUT:
          ----                                     ----
             STORAGE =       9.9734E-02               STORAGE =       8.7370E-05
       CONSTANT HEAD =           0.0000         CONSTANT HEAD =           0.0000
               WELLS =     9487140.0000                 WELLS =        3110.7002
     HEAD DEP BOUNDS =         782.3885       HEAD DEP BOUNDS =           0.0000

           TOTAL OUT =     9487922.0000             TOTAL OUT =        3110.7002

            IN - OUT =         723.0000              IN - OUT =      -9.7656E-04

 PERCENT DISCREPANCY =           0.01     PERCENT DISCREPANCY =          -0.00






         TIME SUMMARY AT END OF TIME STEP    1 IN STRESS PERIOD    9
                    SECONDS     MINUTES      HOURS       DAYS        YEARS
                    -----------------------------------------------------------
   TIME STEP LENGTH 3.15576E+07 5.25960E+05  8766.0      365.25      1.0000    
 STRESS PERIOD TIME 3.15576E+07 5.25960E+05  8766.0      365.25      1.0000    
         TOTAL TIME 2.84018E+08 4.73364E+06  78894.      3287.2      9.0000    
1
1
                            STRESS PERIOD NO.   10, LENGTH =   365.2500    
                            -----------------------------------------------

                              NUMBER OF TIME STEPS =     1

                               MULTIPLIER FOR DELT =     1.000

                            INITIAL TIME STEP SIZE =   365.2500    

 REUSING NON-PARAMETER WELLS FROM LAST STRESS PERIOD

      1 WELL 

 REUSING NON-PARAMETER GHB CELLS FROM LAST STRESS PERIOD

     22 GHB CELLS

 SOLVING FOR HEAD 

    ------------------------------------------------
       NWT REQUIRED            1 OUTER ITERATIONS 
       AND A TOTAL OF          1 INNER ITERATIONS.
    ------------------------------------------------

 OUTPUT CONTROL FOR STRESS PERIOD   10   TIME STEP    1
    PRINT HEAD FOR ALL LAYERS
    SAVE HEAD FOR ALL LAYERS
    PRINT BUDGET
    SAVE BUDGET

 WELLS WITH REDUCED PUMPING FOR STRESS PERIOD    10 TIME STEP     1
   LAY   ROW   COL         APPL.Q          ACT.Q        GW-HEAD       CELL-BOT
     1     5     6  -0.200000E+05  -0.311070E+04   0.980698E+03   0.980000E+03

1
              HEAD IN LAYER   1 AT END OF TIME STEP     1 IN STRESS PERIOD   10
  -----------------------------------------------------------------------------

            1           2           3           4           5           6           7           8           9          10
           11
 ........................................................................................................................
   1   -1000.       987.0       987.0       986.8       986.7       986.6       986.7       986.8       987.0       987.0    
       -1000.    
   2   -1000.       986.1       986.0       985.8       985.6       985.5       985.6       985.8       986.0       986.1    
       -1000.    
   3   -1000.       986.0       985.8       985.6       985.2       985.0       985.2       985.6       985.8       986.0    
       -1000.    
   4   -1000.       986.0       985.8       985.4       984.8       983.9       984.8       985.4       985.8       986.0    
       -1000.    
   5   -1000.       986.2       986.0       985.5       984.3       980.7       984.3       985.5       986.0       986.2    
       -1000.    
   6   -1000.       986.6       986.4       986.1       985.5       984.7       985.5       986.1       986.4       986.6    
       -1000.    
   7   -1000.       987.1       987.0       986.8       986.5       986.3       986.5       986.8       987.0       987.1    
       -1000.    
   8   -1000.       987.7       987.7       987.6       987.4       987.4       987.4       987.6       987.7       987.7    
       -1000.    
   9   -1000.       988.3       988.3       988.2       988.2       988.1       988.2       988.2       988.3       988.3    
       -1000.    
  10   -1000.       988.9       988.9       988.9       988.8       988.8       988.8       988.9       988.9       988.9    
       -1000.    
  11   -1000.       989.5       989.5       989.5       989.5       989.4       989.5       989.5       989.5       989.5    
       -1000.    
  12   -1000.       990.0       990.0       990.0       990.0       990.0       990.0       990.0       990.0       990.0    
       -1000.    
  13   -1000.       990.6       990.6       990.6       990.6       990.6       990.6       990.6       990.6       990.6    
       -1000.    
  14   -1000.       991.1       991.1       991.1       991.1       991.1       991.1       991.1       991.1       991.1    
       -1000.    
  15   -1000.       991.5       991.5       991.5       991.5       991.5       991.5       991.5       991.5       991.5    
       -1000.    
  16   -1000.       992.0       992.0       992.0       992.0       992.0       992.0       992.0       992.0       992.0    
       -1000.    
  17   -1000.       992.5       992.5       992.5       992.5       992.5       992.5       992.5       992.5       992.5    
       -1000.    
  18   -1000.       992.9       992.9       992.9       992.9       992.9       992.9       992.9       992.9       992.9    
       -1000.    
  19   -1000.       993.3       993.3       993.3       993.3       993.3       993.3       993.3       993.3       993.3    
       -1000.    
  20   -1000.       993.7       993.7       993.7       993.7       993.7       993.7       993.7       993.7       993.7    
       -1000.    
  21   -1000.       994.1       994.1       994.1       994.1       994.1       994.1       994.1       994.1       994.1    
       -1000.    
  22   -1000.       999.7       999.7       999.7       999.7       999.7       999.7       999.7       999.7       999.7    
       -1000.    

 HEAD WILL BE SAVED ON UNIT   51 AT END OF TIME STEP    1, STRESS PERIOD   10
1
  VOLUMETRIC BUDGET FOR ENTIRE MODEL AT END OF TIME STEP    1, STRESS PERIOD  10
  ------------------------------------------------------------------------------

     CUMULATIVE VOLUMES      L**3       RATES FOR THIS TIME STEP      L**3/T
     ------------------                 ------------------------

           IN:                                      IN:
           ---                                      ---
             STORAGE =      525609.4375               STORAGE =       9.7913E-05
       CONSTANT HEAD =           0.0000         CONSTANT HEAD =           0.0000
               WELLS =           0.0000                 WELLS =           0.0000
     HEAD DEP BOUNDS =    10099219.0000       HEAD DEP BOUNDS =        3110.6992

            TOTAL IN =    10624828.0000              TOTAL IN =        3110.6992

          OUT:                                     OUT:
          ----                                     ----
             STORAGE =           0.1310               STORAGE =       8.5644E-05
       CONSTANT HEAD =           0.0000         CONSTANT HEAD =           0.0000
               WELLS =    10623323.0000                 WELLS =        3110.7002
     HEAD DEP BOUNDS =         782.3885       HEAD DEP BOUNDS =           0.0000

           TOTAL OUT =    10624105.0000             TOTAL OUT =        3110.7002

            IN - OUT =         723.0000              IN - OUT =      -9.7656E-04

 PERCENT DISCREPANCY =           0.01     PERCENT DISCREPANCY =          -0.00






         TIME SUMMARY AT END OF TIME STEP    1 IN STRESS PERIOD   10
                    SECONDS     MINUTES      HOURS       DAYS        YEARS
                    -----------------------------------------------------------
   TIME STEP LENGTH 3.15576E+07 5.25960E+05  8766.0      365.25      1.0000    
 STRESS PERIOD TIME 3.15576E+07 5.25960E+05  8766.0      365.25      1.0000    
         TOTAL TIME 3.15576E+08 5.25960E+06  87660.      3652.5      10.000    
1

 Run end date and time (yyyy/mm/dd hh:mm:ss): 2018/02/11 10:26:06
 Elapsed run time:  0.077 Seconds

