                                  MODFLOW-NWT-SWR1 
      U.S. GEOLOGICAL SURVEY MODULAR FINITE-DIFFERENCE GROUNDWATER-FLOW MODEL
                            VERSION 1.1.2, 9/15/2016
                    BASED ON MODFLOW-2005 VERSION 1.11.00 08/30/2013

 LIST FILE: Hubbertville_example.list
                         UNIT    2

 OPENING Hubbertville_example.dis
 FILE TYPE:DIS   UNIT   11   STATUS:OLD    
 FORMAT:FORMATTED              ACCESS:SEQUENTIAL          

 OPENING Hubbertville_example.bas
 FILE TYPE:BAS6   UNIT   13   STATUS:OLD    
 FORMAT:FORMATTED              ACCESS:SEQUENTIAL          

 OPENING Hubbertville_example.chd
 FILE TYPE:CHD   UNIT   24   STATUS:OLD    
 FORMAT:FORMATTED              ACCESS:SEQUENTIAL          

 OPENING Hubbertville_example.rch
 FILE TYPE:RCH   UNIT   19   STATUS:OLD    
 FORMAT:FORMATTED              ACCESS:SEQUENTIAL          

 OPENING Hubbertville_example.oc
 FILE TYPE:OC   UNIT   14   STATUS:OLD    
 FORMAT:FORMATTED              ACCESS:SEQUENTIAL          

 OPENING Hubbertville_example.upw
 FILE TYPE:UPW   UNIT   31   STATUS:OLD    
 FORMAT:FORMATTED              ACCESS:SEQUENTIAL          

 OPENING Hubbertville_example.nwt
 FILE TYPE:NWT   UNIT   32   STATUS:OLD    
 FORMAT:FORMATTED              ACCESS:SEQUENTIAL          

 OPENING Hubbertville_example.wel
 FILE TYPE:WEL   UNIT   20   STATUS:OLD    
 FORMAT:FORMATTED              ACCESS:SEQUENTIAL          

 OPENING Hubbertville_example.hds
 FILE TYPE:DATA(BINARY)   UNIT   51   STATUS:REPLACE
 FORMAT:BINARY                 ACCESS:SEQUENTIAL          

 OPENING Hubbertville_example.cbc
 FILE TYPE:DATA(BINARY)   UNIT   53   STATUS:REPLACE
 FORMAT:BINARY                 ACCESS:SEQUENTIAL          

 BAS -- BASIC PACKAGE, VERSION 1.1.2, 9/15/2016 INPUT READ FROM UNIT   13
 
 MODFLOW was compiled using mixed precision
 Precision of REAL variables:           6
 Precision of DOUBLE PRECISION variables:          15

 DISCRETIZATION INPUT DATA READ FROM UNIT   11
 # DIS package for  MODFLOW-NWT, generated by Flopy.
    1 LAYERS        22 ROWS        11 COLUMNS
   12 STRESS PERIOD(S) IN SIMULATION
 MODEL TIME UNIT IS DAYS
 MODEL LENGTH UNIT IS METERS
  Confining bed flag for each layer:
   0

                     DELR =   500.000    

                     DELC =   500.000    



           TOP ELEVATION OF LAYER 1
 READING ON UNIT   11 WITH FORMAT: (11E15.6)           

   MODEL LAYER BOTTOM EL. =   980.000     FOR LAYER   1


 STRESS PERIOD     LENGTH       TIME STEPS     MULTIPLIER FOR DELT    SS FLAG
 ----------------------------------------------------------------------------
        1         365.2500          1                    1.000         SS
        2         365.2500          1                    1.000         TR
        3         365.2500          1                    1.000         TR
        4         365.2500          1                    1.000         TR
        5         365.2500          1                    1.000         TR
        6         365.2500          1                    1.000         TR
        7         365.2500          1                    1.000         TR
        8         365.2500          1                    1.000         TR
        9         365.2500          1                    1.000         TR
       10         365.2500          1                    1.000         TR
       11         365.2500          1                    1.000         TR
       12         365.2500          1                    1.000         TR

 COMBINED STEADY-STATE AND TRANSIENT SIMULATION



 
 # BAS6 package for  MODFLOW-NWT, generated by Flopy.                            
 THE FREE FORMAT OPTION HAS BEEN SELECTED



                     BOUNDARY ARRAY FOR LAYER   1
 READING ON UNIT   13 WITH FORMAT: (11I10)             

 AQUIFER HEAD WILL BE SET TO  -999.99     AT ALL NO-FLOW NODES (IBOUND=0).



                       INITIAL HEAD FOR LAYER   1
 READING ON UNIT   13 WITH FORMAT: (11E15.6)           
 # OC package for  MODFLOW-NWT, generated by Flopy.

 OUTPUT CONTROL IS SPECIFIED ONLY AT TIME STEPS FOR WHICH OUTPUT IS DESIRED
 COMPACT CELL-BY-CELL BUDGET FILES WILL BE WRITTEN
 AUXILIARY DATA WILL BE SAVED IN CELL-BY-CELL BUDGET FILES
 HEAD PRINT FORMAT CODE IS   0    DRAWDOWN PRINT FORMAT CODE IS   0
 HEADS WILL BE SAVED ON UNIT   51    DRAWDOWNS WILL BE SAVED ON UNIT    0
 # NWT package for  MODFLOW-NWT, generated by Flopy.

 NWT1 -- Newton Solver, VERSION 1.1.2, 9/15/2016
         INPUT READ FROM UNIT 32

 COMPLEX OPTION:
 DEFAULT SOLVER INPUT VALUES REFLECT STRONGLY NONLINEAR MODEL
 ***GMRES linear solver will be used***
 
   CONVERGENCE CRITERION OF   0.100000E-01 FOR HEAD SOLUTION
   AND A TOLERANCE OF   0.500000E+03 FOR FLOW SOLUTION AND 
   A MAXIMUM OF   100 OUTER ITERATIONS. 


   D-B-D REDUCTION FACTOR OF    0.850000E+00 AND 
   A D-B-D INCREASE FACTOR OF    0.100000E-04 AND 
   A D-B-D RELAXATION OF    0.000000E+00 AND 
   A MOMENTUM FACTOR OF    0.100000E+00 .


   BACKTRACKING IS ACTIVE 
   THE MAXIMUM NUMBER OF BACKTRACKS IS    50 AND 
   THE BACKTRACKING TOLERANCE IS    0.110000E+01 AND
   THE BACKTRACKING REDUCTION FACTOR IS    0.700000E+00

 GMRES -- LINEAR SOLUTION BY GMRES PACKAGE 
     adapted for HYDROTHERM by Kipp and others (2008)
     using software originally developed by Saad (1990) 32
     using algorithms described in Saad (2003)

 UPW1 -- UPSTREAM WEIGHTING FLOW PACKAGE, VERSION 1.1.2, 9/15/2016
         INPUT READ FROM UNIT 31

 # UPW package for  MODFLOW-NWT, generated by Flopy.
 CELL-BY-CELL FLOWS WILL BE SAVED ON UNIT   53
 No named parameters

   LAYER FLAGS:
 LAYER       LAYTYP          LAYAVG    CHANI           LAYVKA           LAYWET
 ---------------------------------------------------------------------------
    1             1             0     1.000E+00             0             0

   INTERPRETATION OF LAYER FLAGS:
                        INTERBLOCK     HORIZONTAL    DATA IN
         LAYER TYPE   TRANSMISSIVITY   ANISOTROPY   ARRAY VKA   WETTABILITY
 LAYER   (LAYTYP)        (LAYAVG)      (CHANI)     (LAYVKA)       (LAYWET)
 ---------------------------------------------------------------------------
    1   CONVERTIBLE      HARMONIC     1.000E+00    VERTICAL K  NON-WETTABLE



              HYD. COND. ALONG ROWS FOR LAYER   1
 READING ON UNIT   31 WITH FORMAT: (11E15.6)           

      VERTICAL HYD. COND. =   50.0000     FOR LAYER   1

         SPECIFIC STORAGE =  1.000000E-05 FOR LAYER   1

           SPECIFIC YIELD =  1.000000E-03 FOR LAYER   1

 WEL -- WELL PACKAGE FOR NWT VERSION 1.1.2,  9/15/2016 INPUT READ FROM UNIT   20
 # WEL package for  MODFLOW-NWT, generated by Flopy.
 No named parameters
 MAXIMUM OF      1 ACTIVE WELLS AT ONE TIME


     0 Well parameters

 RCH -- RECHARGE PACKAGE, VERSION 7, 5/2/2005 INPUT READ FROM UNIT   19
 # RCH package for  MODFLOW-NWT, generated by Flopy.
 No named parameters
 OPTION 3 -- RECHARGE TO HIGHEST ACTIVE NODE IN EACH VERTICAL COLUMN


     0 Recharge parameters

 CHD -- TIME-VARIANT SPECIFIED-HEAD OPTION, VERSION 7, 5/2/2005
 INPUT READ FROM UNIT   24
 # CHD package for  MODFLOW-NWT, generated by Flopy.
 No named parameters
 MAXIMUM OF      9 TIME-VARIANT SPECIFIED-HEAD CELLS AT ONE TIME


     0 TIME-VARIANT SPECIFIED-HEAD PARAMETERS
1
                            STRESS PERIOD NO.    1, LENGTH =   365.2500    
                            -----------------------------------------------

                              NUMBER OF TIME STEPS =     1

                               MULTIPLIER FOR DELT =     1.000

                            INITIAL TIME STEP SIZE =   365.2500    

 WELL NO.  LAYER   ROW   COL   STRESS RATE         
 --------------------------------------------------
      1      1      5      6       0.000    

      1 WELL 

                 RECHARGE =  5.000000E-04

 CHD NO.   LAYER   ROW   COL    START HEAD        END HEAD         
 ------------------------------------------------------------------
      1      1      1      2       1000.           1000.    
      2      1      1      3       1000.           1000.    
      3      1      1      4       1000.           1000.    
      4      1      1      5       1000.           1000.    
      5      1      1      6       1000.           1000.    
      6      1      1      7       1000.           1000.    
      7      1      1      8       1000.           1000.    
      8      1      1      9       1000.           1000.    
      9      1      1     10       1000.           1000.    


      9 TIME-VARIANT SPECIFIED-HEAD CELLS
 
 SOLVING FOR HEAD 

    ------------------------------------------------
       NWT REQUIRED            4 OUTER ITERATIONS 
       AND A TOTAL OF         56 INNER ITERATIONS.
    ------------------------------------------------

 OUTPUT CONTROL FOR STRESS PERIOD    1   TIME STEP    1
    PRINT HEAD FOR ALL LAYERS
    SAVE HEAD FOR ALL LAYERS
    PRINT BUDGET
    SAVE BUDGET
 UBDSV2 SAVING "   CONSTANT HEAD" ON UNIT  53 AT TIME STEP  1, STRESS PERIOD   1
 UBDSV1 SAVING "FLOW RIGHT FACE " ON UNIT  53 AT TIME STEP  1, STRESS PERIOD   1
 UBDSV1 SAVING "FLOW FRONT FACE " ON UNIT  53 AT TIME STEP  1, STRESS PERIOD   1
1
              HEAD IN LAYER   1 AT END OF TIME STEP   1 IN STRESS PERIOD    1
  ---------------------------------------------------------------------------

            1           2           3           4           5           6           7           8           9          10
           11
 ........................................................................................................................
   1  -1000.0       1000.       1000.       1000.       1000.       1000.       1000.       1000.       1000.       1000.    
      -1000.0    
   2  -1000.0       1013.       1013.       1013.       1013.       1013.       1013.       1013.       1013.       1013.    
      -1000.0    
   3  -1000.0       1015.       1015.       1015.       1015.       1015.       1015.       1015.       1015.       1015.    
      -1000.0    
   4  -1000.0       1017.       1017.       1017.       1017.       1017.       1017.       1017.       1017.       1017.    
      -1000.0    
   5  -1000.0       1019.       1019.       1019.       1019.       1019.       1019.       1019.       1019.       1019.    
      -1000.0    
   6  -1000.0       1020.       1020.       1020.       1020.       1020.       1020.       1020.       1020.       1020.    
      -1000.0    
   7  -1000.0       1021.       1021.       1021.       1021.       1021.       1021.       1021.       1021.       1021.    
      -1000.0    
   8  -1000.0       1022.       1022.       1022.       1022.       1022.       1022.       1022.       1022.       1022.    
      -1000.0    
   9  -1000.0       1023.       1023.       1023.       1023.       1023.       1023.       1023.       1023.       1023.    
      -1000.0    
  10  -1000.0       1024.       1024.       1024.       1024.       1024.       1024.       1024.       1024.       1024.    
      -1000.0    
  11  -1000.0       1025.       1025.       1025.       1025.       1025.       1025.       1025.       1025.       1025.    
      -1000.0    
  12  -1000.0       1026.       1026.       1026.       1026.       1026.       1026.       1026.       1026.       1026.    
      -1000.0    
  13  -1000.0       1026.       1026.       1026.       1026.       1026.       1026.       1026.       1026.       1026.    
      -1000.0    
  14  -1000.0       1027.       1027.       1027.       1027.       1027.       1027.       1027.       1027.       1027.    
      -1000.0    
  15  -1000.0       1028.       1028.       1028.       1028.       1028.       1028.       1028.       1028.       1028.    
      -1000.0    
  16  -1000.0       1028.       1028.       1028.       1028.       1028.       1028.       1028.       1028.       1028.    
      -1000.0    
  17  -1000.0       1029.       1029.       1029.       1029.       1029.       1029.       1029.       1029.       1029.    
      -1000.0    
  18  -1000.0       1029.       1029.       1029.       1029.       1029.       1029.       1029.       1029.       1029.    
      -1000.0    
  19  -1000.0       1029.       1029.       1029.       1029.       1029.       1029.       1029.       1029.       1029.    
      -1000.0    
  20  -1000.0       1030.       1030.       1030.       1030.       1030.       1030.       1030.       1030.       1030.    
      -1000.0    
  21  -1000.0       1030.       1030.       1030.       1030.       1030.       1030.       1030.       1030.       1030.    
      -1000.0    
  22  -1000.0       1030.       1030.       1030.       1030.       1030.       1030.       1030.       1030.       1030.    
      -1000.0    

 HEAD WILL BE SAVED ON UNIT   51 AT END OF TIME STEP    1, STRESS PERIOD    1
1
  VOLUMETRIC BUDGET FOR ENTIRE MODEL AT END OF TIME STEP    1, STRESS PERIOD   1
  ------------------------------------------------------------------------------

     CUMULATIVE VOLUMES      L**3       RATES FOR THIS TIME STEP      L**3/T
     ------------------                 ------------------------

           IN:                                      IN:
           ---                                      ---
             STORAGE =           0.0000               STORAGE =           0.0000
       CONSTANT HEAD =           0.0000         CONSTANT HEAD =           0.0000
               WELLS =           0.0000                 WELLS =           0.0000
            RECHARGE =     8629031.0000              RECHARGE =       23625.0000

            TOTAL IN =     8629031.0000              TOTAL IN =       23625.0000

          OUT:                                     OUT:
          ----                                     ----
             STORAGE =           0.0000               STORAGE =           0.0000
       CONSTANT HEAD =     8629123.0000         CONSTANT HEAD =       23625.2500
               WELLS =           0.0000                 WELLS =           0.0000
            RECHARGE =           0.0000              RECHARGE =           0.0000

           TOTAL OUT =     8629123.0000             TOTAL OUT =       23625.2500

            IN - OUT =         -92.0000              IN - OUT =          -0.2500

 PERCENT DISCREPANCY =          -0.00     PERCENT DISCREPANCY =          -0.00






         TIME SUMMARY AT END OF TIME STEP    1 IN STRESS PERIOD    1
                    SECONDS     MINUTES      HOURS       DAYS        YEARS
                    -----------------------------------------------------------
   TIME STEP LENGTH 3.15576E+07 5.25960E+05  8766.0      365.25      1.0000    
 STRESS PERIOD TIME 3.15576E+07 5.25960E+05  8766.0      365.25      1.0000    
         TOTAL TIME 3.15576E+07 5.25960E+05  8766.0      365.25      1.0000    
1
1
                            STRESS PERIOD NO.    2, LENGTH =   365.2500    
                            -----------------------------------------------

                              NUMBER OF TIME STEPS =     1

                               MULTIPLIER FOR DELT =     1.000

                            INITIAL TIME STEP SIZE =   365.2500    

 WELL NO.  LAYER   ROW   COL   STRESS RATE         
 --------------------------------------------------
      1      1      5      6     -0.2000E+05

      1 WELL 

 REUSING RECH FROM LAST STRESS PERIOD

 REUSING NON-PARAMETER SPECIFIED-HEAD DATA FROM LAST STRESS PERIOD


      9 TIME-VARIANT SPECIFIED-HEAD CELLS
 
 SOLVING FOR HEAD 

    ------------------------------------------------
       NWT REQUIRED            4 OUTER ITERATIONS 
       AND A TOTAL OF         55 INNER ITERATIONS.
    ------------------------------------------------

 OUTPUT CONTROL FOR STRESS PERIOD    2   TIME STEP    1
    PRINT HEAD FOR ALL LAYERS
    SAVE HEAD FOR ALL LAYERS
    PRINT BUDGET
    SAVE BUDGET
 UBDSV1 SAVING "         STORAGE" ON UNIT  53 AT TIME STEP  1, STRESS PERIOD   2
 UBDSV2 SAVING "   CONSTANT HEAD" ON UNIT  53 AT TIME STEP  1, STRESS PERIOD   2
 UBDSV1 SAVING "FLOW RIGHT FACE " ON UNIT  53 AT TIME STEP  1, STRESS PERIOD   2
 UBDSV1 SAVING "FLOW FRONT FACE " ON UNIT  53 AT TIME STEP  1, STRESS PERIOD   2
1
              HEAD IN LAYER   1 AT END OF TIME STEP   1 IN STRESS PERIOD    2
  ---------------------------------------------------------------------------

            1           2           3           4           5           6           7           8           9          10
           11
 ........................................................................................................................
   1  -1000.0       1000.       1000.       1000.       1000.       1000.       1000.       1000.       1000.       1000.    
      -1000.0    
   2  -1000.0       1003.       1003.       1002.       1002.       1002.       1002.       1002.       1003.       1003.    
      -1000.0    
   3  -1000.0       1003.       1003.       1003.       1002.       1002.       1002.       1003.       1003.       1003.    
      -1000.0    
   4  -1000.0       1004.       1004.       1003.       1002.       1001.       1002.       1003.       1004.       1004.    
      -1000.0    
   5  -1000.0       1005.       1005.       1004.       1002.       997.5       1002.       1004.       1005.       1005.    
      -1000.0    
   6  -1000.0       1006.       1006.       1005.       1004.       1003.       1004.       1005.       1006.       1006.    
      -1000.0    
   7  -1000.0       1007.       1007.       1006.       1006.       1006.       1006.       1006.       1007.       1007.    
      -1000.0    
   8  -1000.0       1008.       1008.       1008.       1008.       1008.       1008.       1008.       1008.       1008.    
      -1000.0    
   9  -1000.0       1009.       1009.       1009.       1009.       1009.       1009.       1009.       1009.       1009.    
      -1000.0    
  10  -1000.0       1010.       1010.       1010.       1010.       1010.       1010.       1010.       1010.       1010.    
      -1000.0    
  11  -1000.0       1011.       1011.       1011.       1011.       1011.       1011.       1011.       1011.       1011.    
      -1000.0    
  12  -1000.0       1012.       1012.       1012.       1012.       1012.       1012.       1012.       1012.       1012.    
      -1000.0    
  13  -1000.0       1013.       1013.       1013.       1013.       1013.       1013.       1013.       1013.       1013.    
      -1000.0    
  14  -1000.0       1014.       1014.       1014.       1014.       1014.       1014.       1014.       1014.       1014.    
      -1000.0    
  15  -1000.0       1014.       1014.       1014.       1014.       1014.       1014.       1014.       1014.       1014.    
      -1000.0    
  16  -1000.0       1015.       1015.       1015.       1015.       1015.       1015.       1015.       1015.       1015.    
      -1000.0    
  17  -1000.0       1015.       1015.       1015.       1015.       1015.       1015.       1015.       1015.       1015.    
      -1000.0    
  18  -1000.0       1016.       1016.       1016.       1016.       1016.       1016.       1016.       1016.       1016.    
      -1000.0    
  19  -1000.0       1016.       1016.       1016.       1016.       1016.       1016.       1016.       1016.       1016.    
      -1000.0    
  20  -1000.0       1016.       1016.       1016.       1016.       1016.       1016.       1016.       1016.       1016.    
      -1000.0    
  21  -1000.0       1017.       1017.       1017.       1017.       1017.       1017.       1017.       1017.       1017.    
      -1000.0    
  22  -1000.0       1017.       1017.       1017.       1017.       1017.       1017.       1017.       1017.       1017.    
      -1000.0    

 HEAD WILL BE SAVED ON UNIT   51 AT END OF TIME STEP    1, STRESS PERIOD    2
1
  VOLUMETRIC BUDGET FOR ENTIRE MODEL AT END OF TIME STEP    1, STRESS PERIOD   2
  ------------------------------------------------------------------------------

     CUMULATIVE VOLUMES      L**3       RATES FOR THIS TIME STEP      L**3/T
     ------------------                 ------------------------

           IN:                                      IN:
           ---                                      ---
             STORAGE =      322469.0938               STORAGE =         882.8723
       CONSTANT HEAD =           0.0000         CONSTANT HEAD =           0.0000
               WELLS =           0.0000                 WELLS =           0.0000
            RECHARGE =    17258062.0000              RECHARGE =       23625.0000

            TOTAL IN =    17580532.0000              TOTAL IN =       24507.8730

          OUT:                                     OUT:
          ----                                     ----
             STORAGE =           0.0000               STORAGE =           0.0000
       CONSTANT HEAD =    10275510.0000         CONSTANT HEAD =        4507.5630
               WELLS =     7305000.0000                 WELLS =       20000.0000
            RECHARGE =           0.0000              RECHARGE =           0.0000

           TOTAL OUT =    17580510.0000             TOTAL OUT =       24507.5625

            IN - OUT =          22.0000              IN - OUT =           0.3105

 PERCENT DISCREPANCY =           0.00     PERCENT DISCREPANCY =           0.00






         TIME SUMMARY AT END OF TIME STEP    1 IN STRESS PERIOD    2
                    SECONDS     MINUTES      HOURS       DAYS        YEARS
                    -----------------------------------------------------------
   TIME STEP LENGTH 3.15576E+07 5.25960E+05  8766.0      365.25      1.0000    
 STRESS PERIOD TIME 3.15576E+07 5.25960E+05  8766.0      365.25      1.0000    
         TOTAL TIME 6.31152E+07 1.05192E+06  17532.      730.50      2.0000    
1
1
                            STRESS PERIOD NO.    3, LENGTH =   365.2500    
                            -----------------------------------------------

                              NUMBER OF TIME STEPS =     1

                               MULTIPLIER FOR DELT =     1.000

                            INITIAL TIME STEP SIZE =   365.2500    

 WELL NO.  LAYER   ROW   COL   STRESS RATE         
 --------------------------------------------------
      1      1      5      6     -0.2000E+05

      1 WELL 

 REUSING RECH FROM LAST STRESS PERIOD

 REUSING NON-PARAMETER SPECIFIED-HEAD DATA FROM LAST STRESS PERIOD


      9 TIME-VARIANT SPECIFIED-HEAD CELLS
 
 SOLVING FOR HEAD 

    ------------------------------------------------
       NWT REQUIRED            4 OUTER ITERATIONS 
       AND A TOTAL OF         46 INNER ITERATIONS.
    ------------------------------------------------

 OUTPUT CONTROL FOR STRESS PERIOD    3   TIME STEP    1
    PRINT HEAD FOR ALL LAYERS
    SAVE HEAD FOR ALL LAYERS
    PRINT BUDGET
    SAVE BUDGET
 UBDSV1 SAVING "         STORAGE" ON UNIT  53 AT TIME STEP  1, STRESS PERIOD   3
 UBDSV2 SAVING "   CONSTANT HEAD" ON UNIT  53 AT TIME STEP  1, STRESS PERIOD   3
 UBDSV1 SAVING "FLOW RIGHT FACE " ON UNIT  53 AT TIME STEP  1, STRESS PERIOD   3
 UBDSV1 SAVING "FLOW FRONT FACE " ON UNIT  53 AT TIME STEP  1, STRESS PERIOD   3
1
              HEAD IN LAYER   1 AT END OF TIME STEP   1 IN STRESS PERIOD    3
  ---------------------------------------------------------------------------

            1           2           3           4           5           6           7           8           9          10
           11
 ........................................................................................................................
   1  -1000.0       1000.       1000.       1000.       1000.       1000.       1000.       1000.       1000.       1000.    
      -1000.0    
   2  -1000.0       1002.       1002.       1002.       1002.       1002.       1002.       1002.       1002.       1002.    
      -1000.0    
   3  -1000.0       1003.       1003.       1002.       1002.       1001.       1002.       1002.       1003.       1003.    
      -1000.0    
   4  -1000.0       1004.       1003.       1003.       1002.       1000.       1002.       1003.       1003.       1004.    
      -1000.0    
   5  -1000.0       1004.       1004.       1003.       1001.       996.6       1001.       1003.       1004.       1004.    
      -1000.0    
   6  -1000.0       1005.       1005.       1004.       1003.       1002.       1003.       1004.       1005.       1005.    
      -1000.0    
   7  -1000.0       1006.       1006.       1006.       1005.       1005.       1005.       1006.       1006.       1006.    
      -1000.0    
   8  -1000.0       1007.       1007.       1007.       1007.       1007.       1007.       1007.       1007.       1007.    
      -1000.0    
   9  -1000.0       1009.       1008.       1008.       1008.       1008.       1008.       1008.       1008.       1009.    
      -1000.0    
  10  -1000.0       1010.       1010.       1010.       1009.       1009.       1009.       1010.       1010.       1010.    
      -1000.0    
  11  -1000.0       1011.       1011.       1010.       1010.       1010.       1010.       1010.       1011.       1011.    
      -1000.0    
  12  -1000.0       1011.       1011.       1011.       1011.       1011.       1011.       1011.       1011.       1011.    
      -1000.0    
  13  -1000.0       1012.       1012.       1012.       1012.       1012.       1012.       1012.       1012.       1012.    
      -1000.0    
  14  -1000.0       1013.       1013.       1013.       1013.       1013.       1013.       1013.       1013.       1013.    
      -1000.0    
  15  -1000.0       1013.       1013.       1013.       1013.       1013.       1013.       1013.       1013.       1013.    
      -1000.0    
  16  -1000.0       1014.       1014.       1014.       1014.       1014.       1014.       1014.       1014.       1014.    
      -1000.0    
  17  -1000.0       1014.       1014.       1014.       1014.       1014.       1014.       1014.       1014.       1014.    
      -1000.0    
  18  -1000.0       1015.       1015.       1015.       1015.       1015.       1015.       1015.       1015.       1015.    
      -1000.0    
  19  -1000.0       1015.       1015.       1015.       1015.       1015.       1015.       1015.       1015.       1015.    
      -1000.0    
  20  -1000.0       1016.       1016.       1016.       1016.       1016.       1016.       1016.       1016.       1016.    
      -1000.0    
  21  -1000.0       1016.       1016.       1016.       1016.       1016.       1016.       1016.       1016.       1016.    
      -1000.0    
  22  -1000.0       1016.       1016.       1016.       1016.       1016.       1016.       1016.       1016.       1016.    
      -1000.0    

 HEAD WILL BE SAVED ON UNIT   51 AT END OF TIME STEP    1, STRESS PERIOD    3
1
  VOLUMETRIC BUDGET FOR ENTIRE MODEL AT END OF TIME STEP    1, STRESS PERIOD   3
  ------------------------------------------------------------------------------

     CUMULATIVE VOLUMES      L**3       RATES FOR THIS TIME STEP      L**3/T
     ------------------                 ------------------------

           IN:                                      IN:
           ---                                      ---
             STORAGE =      350946.3125               STORAGE =          77.9664
       CONSTANT HEAD =           0.0000         CONSTANT HEAD =           0.0000
               WELLS =           0.0000                 WELLS =           0.0000
            RECHARGE =    25887092.0000              RECHARGE =       23625.0000

            TOTAL IN =    26238038.0000              TOTAL IN =       23702.9668

          OUT:                                     OUT:
          ----                                     ----
             STORAGE =           0.0000               STORAGE =           0.0000
       CONSTANT HEAD =    11628001.0000         CONSTANT HEAD =        3702.9180
               WELLS =    14610000.0000                 WELLS =       20000.0000
            RECHARGE =           0.0000              RECHARGE =           0.0000

           TOTAL OUT =    26238000.0000             TOTAL OUT =       23702.9180

            IN - OUT =          38.0000              IN - OUT =       4.8828E-02

 PERCENT DISCREPANCY =           0.00     PERCENT DISCREPANCY =           0.00






         TIME SUMMARY AT END OF TIME STEP    1 IN STRESS PERIOD    3
                    SECONDS     MINUTES      HOURS       DAYS        YEARS
                    -----------------------------------------------------------
   TIME STEP LENGTH 3.15576E+07 5.25960E+05  8766.0      365.25      1.0000    
 STRESS PERIOD TIME 3.15576E+07 5.25960E+05  8766.0      365.25      1.0000    
         TOTAL TIME 9.46728E+07 1.57788E+06  26298.      1095.8      3.0000    
1
1
                            STRESS PERIOD NO.    4, LENGTH =   365.2500    
                            -----------------------------------------------

                              NUMBER OF TIME STEPS =     1

                               MULTIPLIER FOR DELT =     1.000

                            INITIAL TIME STEP SIZE =   365.2500    

 REUSING NON-PARAMETER WELLS FROM LAST STRESS PERIOD

      1 WELL 

 REUSING RECH FROM LAST STRESS PERIOD

 REUSING NON-PARAMETER SPECIFIED-HEAD DATA FROM LAST STRESS PERIOD


      9 TIME-VARIANT SPECIFIED-HEAD CELLS
 
 SOLVING FOR HEAD 

    ------------------------------------------------
       NWT REQUIRED            2 OUTER ITERATIONS 
       AND A TOTAL OF         21 INNER ITERATIONS.
    ------------------------------------------------

 OUTPUT CONTROL FOR STRESS PERIOD    4   TIME STEP    1
    PRINT HEAD FOR ALL LAYERS
    SAVE HEAD FOR ALL LAYERS
    PRINT BUDGET
    SAVE BUDGET
 UBDSV1 SAVING "         STORAGE" ON UNIT  53 AT TIME STEP  1, STRESS PERIOD   4
 UBDSV2 SAVING "   CONSTANT HEAD" ON UNIT  53 AT TIME STEP  1, STRESS PERIOD   4
 UBDSV1 SAVING "FLOW RIGHT FACE " ON UNIT  53 AT TIME STEP  1, STRESS PERIOD   4
 UBDSV1 SAVING "FLOW FRONT FACE " ON UNIT  53 AT TIME STEP  1, STRESS PERIOD   4
1
              HEAD IN LAYER   1 AT END OF TIME STEP   1 IN STRESS PERIOD    4
  ---------------------------------------------------------------------------

            1           2           3           4           5           6           7           8           9          10
           11
 ........................................................................................................................
   1  -1000.0       1000.       1000.       1000.       1000.       1000.       1000.       1000.       1000.       1000.    
      -1000.0    
   2  -1000.0       1002.       1002.       1002.       1002.       1002.       1002.       1002.       1002.       1002.    
      -1000.0    
   3  -1000.0       1003.       1003.       1002.       1002.       1001.       1002.       1002.       1003.       1003.    
      -1000.0    
   4  -1000.0       1003.       1003.       1003.       1001.       1000.       1001.       1003.       1003.       1003.    
      -1000.0    
   5  -1000.0       1004.       1004.       1003.       1001.       996.6       1001.       1003.       1004.       1004.    
      -1000.0    
   6  -1000.0       1005.       1005.       1004.       1003.       1002.       1003.       1004.       1005.       1005.    
      -1000.0    
   7  -1000.0       1006.       1006.       1006.       1005.       1005.       1005.       1006.       1006.       1006.    
      -1000.0    
   8  -1000.0       1007.       1007.       1007.       1007.       1007.       1007.       1007.       1007.       1007.    
      -1000.0    
   9  -1000.0       1008.       1008.       1008.       1008.       1008.       1008.       1008.       1008.       1008.    
      -1000.0    
  10  -1000.0       1010.       1009.       1009.       1009.       1009.       1009.       1009.       1009.       1010.    
      -1000.0    
  11  -1000.0       1010.       1010.       1010.       1010.       1010.       1010.       1010.       1010.       1010.    
      -1000.0    
  12  -1000.0       1011.       1011.       1011.       1011.       1011.       1011.       1011.       1011.       1011.    
      -1000.0    
  13  -1000.0       1012.       1012.       1012.       1012.       1012.       1012.       1012.       1012.       1012.    
      -1000.0    
  14  -1000.0       1013.       1013.       1013.       1013.       1013.       1013.       1013.       1013.       1013.    
      -1000.0    
  15  -1000.0       1013.       1013.       1013.       1013.       1013.       1013.       1013.       1013.       1013.    
      -1000.0    
  16  -1000.0       1014.       1014.       1014.       1014.       1014.       1014.       1014.       1014.       1014.    
      -1000.0    
  17  -1000.0       1014.       1014.       1014.       1014.       1014.       1014.       1014.       1014.       1014.    
      -1000.0    
  18  -1000.0       1015.       1015.       1015.       1015.       1015.       1015.       1015.       1015.       1015.    
      -1000.0    
  19  -1000.0       1015.       1015.       1015.       1015.       1015.       1015.       1015.       1015.       1015.    
      -1000.0    
  20  -1000.0       1016.       1016.       1016.       1016.       1016.       1016.       1016.       1016.       1016.    
      -1000.0    
  21  -1000.0       1016.       1016.       1016.       1016.       1016.       1016.       1016.       1016.       1016.    
      -1000.0    
  22  -1000.0       1016.       1016.       1016.       1016.       1016.       1016.       1016.       1016.       1016.    
      -1000.0    

 HEAD WILL BE SAVED ON UNIT   51 AT END OF TIME STEP    1, STRESS PERIOD    4
1
  VOLUMETRIC BUDGET FOR ENTIRE MODEL AT END OF TIME STEP    1, STRESS PERIOD   4
  ------------------------------------------------------------------------------

     CUMULATIVE VOLUMES      L**3       RATES FOR THIS TIME STEP      L**3/T
     ------------------                 ------------------------

           IN:                                      IN:
           ---                                      ---
             STORAGE =      353474.4375               STORAGE =           6.9216
       CONSTANT HEAD =           0.0000         CONSTANT HEAD =           0.0000
               WELLS =           0.0000                 WELLS =           0.0000
            RECHARGE =    34516124.0000              RECHARGE =       23625.0000

            TOTAL IN =    34869600.0000              TOTAL IN =       23631.9219

          OUT:                                     OUT:
          ----                                     ----
             STORAGE =           0.0000               STORAGE =           0.0000
       CONSTANT HEAD =    12954407.0000         CONSTANT HEAD =        3631.5027
               WELLS =    21915000.0000                 WELLS =       20000.0000
            RECHARGE =           0.0000              RECHARGE =           0.0000

           TOTAL OUT =    34869408.0000             TOTAL OUT =       23631.5020

            IN - OUT =         192.0000              IN - OUT =           0.4199

 PERCENT DISCREPANCY =           0.00     PERCENT DISCREPANCY =           0.00






         TIME SUMMARY AT END OF TIME STEP    1 IN STRESS PERIOD    4
                    SECONDS     MINUTES      HOURS       DAYS        YEARS
                    -----------------------------------------------------------
   TIME STEP LENGTH 3.15576E+07 5.25960E+05  8766.0      365.25      1.0000    
 STRESS PERIOD TIME 3.15576E+07 5.25960E+05  8766.0      365.25      1.0000    
         TOTAL TIME 1.26230E+08 2.10384E+06  35064.      1461.0      4.0000    
1
1
                            STRESS PERIOD NO.    5, LENGTH =   365.2500    
                            -----------------------------------------------

                              NUMBER OF TIME STEPS =     1

                               MULTIPLIER FOR DELT =     1.000

                            INITIAL TIME STEP SIZE =   365.2500    

 REUSING NON-PARAMETER WELLS FROM LAST STRESS PERIOD

      1 WELL 

 REUSING RECH FROM LAST STRESS PERIOD

 REUSING NON-PARAMETER SPECIFIED-HEAD DATA FROM LAST STRESS PERIOD


      9 TIME-VARIANT SPECIFIED-HEAD CELLS
 
 SOLVING FOR HEAD 

    ------------------------------------------------
       NWT REQUIRED            1 OUTER ITERATIONS 
       AND A TOTAL OF         10 INNER ITERATIONS.
    ------------------------------------------------

 OUTPUT CONTROL FOR STRESS PERIOD    5   TIME STEP    1
    PRINT HEAD FOR ALL LAYERS
    SAVE HEAD FOR ALL LAYERS
    PRINT BUDGET
    SAVE BUDGET
 UBDSV1 SAVING "         STORAGE" ON UNIT  53 AT TIME STEP  1, STRESS PERIOD   5
 UBDSV2 SAVING "   CONSTANT HEAD" ON UNIT  53 AT TIME STEP  1, STRESS PERIOD   5
 UBDSV1 SAVING "FLOW RIGHT FACE " ON UNIT  53 AT TIME STEP  1, STRESS PERIOD   5
 UBDSV1 SAVING "FLOW FRONT FACE " ON UNIT  53 AT TIME STEP  1, STRESS PERIOD   5
1
              HEAD IN LAYER   1 AT END OF TIME STEP   1 IN STRESS PERIOD    5
  ---------------------------------------------------------------------------

            1           2           3           4           5           6           7           8           9          10
           11
 ........................................................................................................................
   1  -1000.0       1000.       1000.       1000.       1000.       1000.       1000.       1000.       1000.       1000.    
      -1000.0    
   2  -1000.0       1002.       1002.       1002.       1002.       1002.       1002.       1002.       1002.       1002.    
      -1000.0    
   3  -1000.0       1003.       1003.       1002.       1002.       1001.       1002.       1002.       1003.       1003.    
      -1000.0    
   4  -1000.0       1003.       1003.       1003.       1001.       1000.       1001.       1003.       1003.       1003.    
      -1000.0    
   5  -1000.0       1004.       1004.       1003.       1001.       996.5       1001.       1003.       1004.       1004.    
      -1000.0    
   6  -1000.0       1005.       1005.       1004.       1003.       1002.       1003.       1004.       1005.       1005.    
      -1000.0    
   7  -1000.0       1006.       1006.       1006.       1005.       1005.       1005.       1006.       1006.       1006.    
      -1000.0    
   8  -1000.0       1007.       1007.       1007.       1007.       1007.       1007.       1007.       1007.       1007.    
      -1000.0    
   9  -1000.0       1008.       1008.       1008.       1008.       1008.       1008.       1008.       1008.       1008.    
      -1000.0    
  10  -1000.0       1010.       1009.       1009.       1009.       1009.       1009.       1009.       1009.       1010.    
      -1000.0    
  11  -1000.0       1010.       1010.       1010.       1010.       1010.       1010.       1010.       1010.       1010.    
      -1000.0    
  12  -1000.0       1011.       1011.       1011.       1011.       1011.       1011.       1011.       1011.       1011.    
      -1000.0    
  13  -1000.0       1012.       1012.       1012.       1012.       1012.       1012.       1012.       1012.       1012.    
      -1000.0    
  14  -1000.0       1013.       1013.       1013.       1013.       1013.       1013.       1013.       1013.       1013.    
      -1000.0    
  15  -1000.0       1013.       1013.       1013.       1013.       1013.       1013.       1013.       1013.       1013.    
      -1000.0    
  16  -1000.0       1014.       1014.       1014.       1014.       1014.       1014.       1014.       1014.       1014.    
      -1000.0    
  17  -1000.0       1014.       1014.       1014.       1014.       1014.       1014.       1014.       1014.       1014.    
      -1000.0    
  18  -1000.0       1015.       1015.       1015.       1015.       1015.       1015.       1015.       1015.       1015.    
      -1000.0    
  19  -1000.0       1015.       1015.       1015.       1015.       1015.       1015.       1015.       1015.       1015.    
      -1000.0    
  20  -1000.0       1016.       1016.       1016.       1016.       1016.       1016.       1016.       1016.       1016.    
      -1000.0    
  21  -1000.0       1016.       1016.       1016.       1016.       1016.       1016.       1016.       1016.       1016.    
      -1000.0    
  22  -1000.0       1016.       1016.       1016.       1016.       1016.       1016.       1016.       1016.       1016.    
      -1000.0    

 HEAD WILL BE SAVED ON UNIT   51 AT END OF TIME STEP    1, STRESS PERIOD    5
1
  VOLUMETRIC BUDGET FOR ENTIRE MODEL AT END OF TIME STEP    1, STRESS PERIOD   5
  ------------------------------------------------------------------------------

     CUMULATIVE VOLUMES      L**3       RATES FOR THIS TIME STEP      L**3/T
     ------------------                 ------------------------

           IN:                                      IN:
           ---                                      ---
             STORAGE =      353705.3125               STORAGE =           0.6321
       CONSTANT HEAD =           0.0000         CONSTANT HEAD =           0.0000
               WELLS =           0.0000                 WELLS =           0.0000
            RECHARGE =    43145156.0000              RECHARGE =       23625.0000

            TOTAL IN =    43498860.0000              TOTAL IN =       23625.6328

          OUT:                                     OUT:
          ----                                     ----
             STORAGE =           0.0000               STORAGE =           0.0000
       CONSTANT HEAD =    14278432.0000         CONSTANT HEAD =        3624.9824
               WELLS =    29220000.0000                 WELLS =       20000.0000
            RECHARGE =           0.0000              RECHARGE =           0.0000

           TOTAL OUT =    43498432.0000             TOTAL OUT =       23624.9824

            IN - OUT =         428.0000              IN - OUT =           0.6504

 PERCENT DISCREPANCY =           0.00     PERCENT DISCREPANCY =           0.00






         TIME SUMMARY AT END OF TIME STEP    1 IN STRESS PERIOD    5
                    SECONDS     MINUTES      HOURS       DAYS        YEARS
                    -----------------------------------------------------------
   TIME STEP LENGTH 3.15576E+07 5.25960E+05  8766.0      365.25      1.0000    
 STRESS PERIOD TIME 3.15576E+07 5.25960E+05  8766.0      365.25      1.0000    
         TOTAL TIME 1.57788E+08 2.62980E+06  43830.      1826.2      5.0000    
1
1
                            STRESS PERIOD NO.    6, LENGTH =   365.2500    
                            -----------------------------------------------

                              NUMBER OF TIME STEPS =     1

                               MULTIPLIER FOR DELT =     1.000

                            INITIAL TIME STEP SIZE =   365.2500    

 REUSING NON-PARAMETER WELLS FROM LAST STRESS PERIOD

      1 WELL 

 REUSING RECH FROM LAST STRESS PERIOD

 REUSING NON-PARAMETER SPECIFIED-HEAD DATA FROM LAST STRESS PERIOD


      9 TIME-VARIANT SPECIFIED-HEAD CELLS
 
 SOLVING FOR HEAD 

    ------------------------------------------------
       NWT REQUIRED            1 OUTER ITERATIONS 
       AND A TOTAL OF          5 INNER ITERATIONS.
    ------------------------------------------------

 OUTPUT CONTROL FOR STRESS PERIOD    6   TIME STEP    1
    PRINT HEAD FOR ALL LAYERS
    SAVE HEAD FOR ALL LAYERS
    PRINT BUDGET
    SAVE BUDGET
 UBDSV1 SAVING "         STORAGE" ON UNIT  53 AT TIME STEP  1, STRESS PERIOD   6
 UBDSV2 SAVING "   CONSTANT HEAD" ON UNIT  53 AT TIME STEP  1, STRESS PERIOD   6
 UBDSV1 SAVING "FLOW RIGHT FACE " ON UNIT  53 AT TIME STEP  1, STRESS PERIOD   6
 UBDSV1 SAVING "FLOW FRONT FACE " ON UNIT  53 AT TIME STEP  1, STRESS PERIOD   6
1
              HEAD IN LAYER   1 AT END OF TIME STEP   1 IN STRESS PERIOD    6
  ---------------------------------------------------------------------------

            1           2           3           4           5           6           7           8           9          10
           11
 ........................................................................................................................
   1  -1000.0       1000.       1000.       1000.       1000.       1000.       1000.       1000.       1000.       1000.    
      -1000.0    
   2  -1000.0       1002.       1002.       1002.       1002.       1002.       1002.       1002.       1002.       1002.    
      -1000.0    
   3  -1000.0       1003.       1003.       1002.       1002.       1001.       1002.       1002.       1003.       1003.    
      -1000.0    
   4  -1000.0       1003.       1003.       1003.       1001.       1000.       1001.       1003.       1003.       1003.    
      -1000.0    
   5  -1000.0       1004.       1004.       1003.       1001.       996.5       1001.       1003.       1004.       1004.    
      -1000.0    
   6  -1000.0       1005.       1005.       1004.       1003.       1002.       1003.       1004.       1005.       1005.    
      -1000.0    
   7  -1000.0       1006.       1006.       1006.       1005.       1005.       1005.       1006.       1006.       1006.    
      -1000.0    
   8  -1000.0       1007.       1007.       1007.       1007.       1007.       1007.       1007.       1007.       1007.    
      -1000.0    
   9  -1000.0       1008.       1008.       1008.       1008.       1008.       1008.       1008.       1008.       1008.    
      -1000.0    
  10  -1000.0       1010.       1009.       1009.       1009.       1009.       1009.       1009.       1009.       1010.    
      -1000.0    
  11  -1000.0       1010.       1010.       1010.       1010.       1010.       1010.       1010.       1010.       1010.    
      -1000.0    
  12  -1000.0       1011.       1011.       1011.       1011.       1011.       1011.       1011.       1011.       1011.    
      -1000.0    
  13  -1000.0       1012.       1012.       1012.       1012.       1012.       1012.       1012.       1012.       1012.    
      -1000.0    
  14  -1000.0       1013.       1013.       1013.       1013.       1013.       1013.       1013.       1013.       1013.    
      -1000.0    
  15  -1000.0       1013.       1013.       1013.       1013.       1013.       1013.       1013.       1013.       1013.    
      -1000.0    
  16  -1000.0       1014.       1014.       1014.       1014.       1014.       1014.       1014.       1014.       1014.    
      -1000.0    
  17  -1000.0       1014.       1014.       1014.       1014.       1014.       1014.       1014.       1014.       1014.    
      -1000.0    
  18  -1000.0       1015.       1015.       1015.       1015.       1015.       1015.       1015.       1015.       1015.    
      -1000.0    
  19  -1000.0       1015.       1015.       1015.       1015.       1015.       1015.       1015.       1015.       1015.    
      -1000.0    
  20  -1000.0       1016.       1016.       1016.       1016.       1016.       1016.       1016.       1016.       1016.    
      -1000.0    
  21  -1000.0       1016.       1016.       1016.       1016.       1016.       1016.       1016.       1016.       1016.    
      -1000.0    
  22  -1000.0       1016.       1016.       1016.       1016.       1016.       1016.       1016.       1016.       1016.    
      -1000.0    

 HEAD WILL BE SAVED ON UNIT   51 AT END OF TIME STEP    1, STRESS PERIOD    6
1
  VOLUMETRIC BUDGET FOR ENTIRE MODEL AT END OF TIME STEP    1, STRESS PERIOD   6
  ------------------------------------------------------------------------------

     CUMULATIVE VOLUMES      L**3       RATES FOR THIS TIME STEP      L**3/T
     ------------------                 ------------------------

           IN:                                      IN:
           ---                                      ---
             STORAGE =      353705.3125               STORAGE =       3.9045E-05
       CONSTANT HEAD =           0.0000         CONSTANT HEAD =           0.0000
               WELLS =           0.0000                 WELLS =           0.0000
            RECHARGE =    51774188.0000              RECHARGE =       23625.0000

            TOTAL IN =    52127892.0000              TOTAL IN =       23625.0000

          OUT:                                     OUT:
          ----                                     ----
             STORAGE =           0.5024               STORAGE =       1.3756E-03
       CONSTANT HEAD =    15602461.0000         CONSTANT HEAD =        3624.9946
               WELLS =    36525000.0000                 WELLS =       20000.0000
            RECHARGE =           0.0000              RECHARGE =           0.0000

           TOTAL OUT =    52127464.0000             TOTAL OUT =       23624.9961

            IN - OUT =         428.0000              IN - OUT =       3.9062E-03

 PERCENT DISCREPANCY =           0.00     PERCENT DISCREPANCY =           0.00






         TIME SUMMARY AT END OF TIME STEP    1 IN STRESS PERIOD    6
                    SECONDS     MINUTES      HOURS       DAYS        YEARS
                    -----------------------------------------------------------
   TIME STEP LENGTH 3.15576E+07 5.25960E+05  8766.0      365.25      1.0000    
 STRESS PERIOD TIME 3.15576E+07 5.25960E+05  8766.0      365.25      1.0000    
         TOTAL TIME 1.89346E+08 3.15576E+06  52596.      2191.5      6.0000    
1
1
                            STRESS PERIOD NO.    7, LENGTH =   365.2500    
                            -----------------------------------------------

                              NUMBER OF TIME STEPS =     1

                               MULTIPLIER FOR DELT =     1.000

                            INITIAL TIME STEP SIZE =   365.2500    

 REUSING NON-PARAMETER WELLS FROM LAST STRESS PERIOD

      1 WELL 

 REUSING RECH FROM LAST STRESS PERIOD

 REUSING NON-PARAMETER SPECIFIED-HEAD DATA FROM LAST STRESS PERIOD


      9 TIME-VARIANT SPECIFIED-HEAD CELLS
 
 SOLVING FOR HEAD 

    ------------------------------------------------
       NWT REQUIRED            1 OUTER ITERATIONS 
       AND A TOTAL OF          1 INNER ITERATIONS.
    ------------------------------------------------

 OUTPUT CONTROL FOR STRESS PERIOD    7   TIME STEP    1
    PRINT HEAD FOR ALL LAYERS
    SAVE HEAD FOR ALL LAYERS
    PRINT BUDGET
    SAVE BUDGET
 UBDSV1 SAVING "         STORAGE" ON UNIT  53 AT TIME STEP  1, STRESS PERIOD   7
 UBDSV2 SAVING "   CONSTANT HEAD" ON UNIT  53 AT TIME STEP  1, STRESS PERIOD   7
 UBDSV1 SAVING "FLOW RIGHT FACE " ON UNIT  53 AT TIME STEP  1, STRESS PERIOD   7
 UBDSV1 SAVING "FLOW FRONT FACE " ON UNIT  53 AT TIME STEP  1, STRESS PERIOD   7
1
              HEAD IN LAYER   1 AT END OF TIME STEP   1 IN STRESS PERIOD    7
  ---------------------------------------------------------------------------

            1           2           3           4           5           6           7           8           9          10
           11
 ........................................................................................................................
   1  -1000.0       1000.       1000.       1000.       1000.       1000.       1000.       1000.       1000.       1000.    
      -1000.0    
   2  -1000.0       1002.       1002.       1002.       1002.       1002.       1002.       1002.       1002.       1002.    
      -1000.0    
   3  -1000.0       1003.       1003.       1002.       1002.       1001.       1002.       1002.       1003.       1003.    
      -1000.0    
   4  -1000.0       1003.       1003.       1003.       1001.       1000.       1001.       1003.       1003.       1003.    
      -1000.0    
   5  -1000.0       1004.       1004.       1003.       1001.       996.5       1001.       1003.       1004.       1004.    
      -1000.0    
   6  -1000.0       1005.       1005.       1004.       1003.       1002.       1003.       1004.       1005.       1005.    
      -1000.0    
   7  -1000.0       1006.       1006.       1006.       1005.       1005.       1005.       1006.       1006.       1006.    
      -1000.0    
   8  -1000.0       1007.       1007.       1007.       1007.       1007.       1007.       1007.       1007.       1007.    
      -1000.0    
   9  -1000.0       1008.       1008.       1008.       1008.       1008.       1008.       1008.       1008.       1008.    
      -1000.0    
  10  -1000.0       1010.       1009.       1009.       1009.       1009.       1009.       1009.       1009.       1010.    
      -1000.0    
  11  -1000.0       1010.       1010.       1010.       1010.       1010.       1010.       1010.       1010.       1010.    
      -1000.0    
  12  -1000.0       1011.       1011.       1011.       1011.       1011.       1011.       1011.       1011.       1011.    
      -1000.0    
  13  -1000.0       1012.       1012.       1012.       1012.       1012.       1012.       1012.       1012.       1012.    
      -1000.0    
  14  -1000.0       1013.       1013.       1013.       1013.       1013.       1013.       1013.       1013.       1013.    
      -1000.0    
  15  -1000.0       1013.       1013.       1013.       1013.       1013.       1013.       1013.       1013.       1013.    
      -1000.0    
  16  -1000.0       1014.       1014.       1014.       1014.       1014.       1014.       1014.       1014.       1014.    
      -1000.0    
  17  -1000.0       1014.       1014.       1014.       1014.       1014.       1014.       1014.       1014.       1014.    
      -1000.0    
  18  -1000.0       1015.       1015.       1015.       1015.       1015.       1015.       1015.       1015.       1015.    
      -1000.0    
  19  -1000.0       1015.       1015.       1015.       1015.       1015.       1015.       1015.       1015.       1015.    
      -1000.0    
  20  -1000.0       1016.       1016.       1016.       1016.       1016.       1016.       1016.       1016.       1016.    
      -1000.0    
  21  -1000.0       1016.       1016.       1016.       1016.       1016.       1016.       1016.       1016.       1016.    
      -1000.0    
  22  -1000.0       1016.       1016.       1016.       1016.       1016.       1016.       1016.       1016.       1016.    
      -1000.0    

 HEAD WILL BE SAVED ON UNIT   51 AT END OF TIME STEP    1, STRESS PERIOD    7
1
  VOLUMETRIC BUDGET FOR ENTIRE MODEL AT END OF TIME STEP    1, STRESS PERIOD   7
  ------------------------------------------------------------------------------

     CUMULATIVE VOLUMES      L**3       RATES FOR THIS TIME STEP      L**3/T
     ------------------                 ------------------------

           IN:                                      IN:
           ---                                      ---
             STORAGE =      353705.4062               STORAGE =       2.3040E-04
       CONSTANT HEAD =           0.0000         CONSTANT HEAD =           0.0000
               WELLS =           0.0000                 WELLS =           0.0000
            RECHARGE =    60403220.0000              RECHARGE =       23625.0000

            TOTAL IN =    60756924.0000              TOTAL IN =       23625.0000

          OUT:                                     OUT:
          ----                                     ----
             STORAGE =           0.6163               STORAGE =       3.1185E-04
       CONSTANT HEAD =    16926490.0000         CONSTANT HEAD =        3624.9946
               WELLS =    43830000.0000                 WELLS =       20000.0000
            RECHARGE =           0.0000              RECHARGE =           0.0000

           TOTAL OUT =    60756488.0000             TOTAL OUT =       23624.9941

            IN - OUT =         436.0000              IN - OUT =       5.8594E-03

 PERCENT DISCREPANCY =           0.00     PERCENT DISCREPANCY =           0.00






         TIME SUMMARY AT END OF TIME STEP    1 IN STRESS PERIOD    7
                    SECONDS     MINUTES      HOURS       DAYS        YEARS
                    -----------------------------------------------------------
   TIME STEP LENGTH 3.15576E+07 5.25960E+05  8766.0      365.25      1.0000    
 STRESS PERIOD TIME 3.15576E+07 5.25960E+05  8766.0      365.25      1.0000    
         TOTAL TIME 2.20903E+08 3.68172E+06  61362.      2556.8      7.0000    
1
1
                            STRESS PERIOD NO.    8, LENGTH =   365.2500    
                            -----------------------------------------------

                              NUMBER OF TIME STEPS =     1

                               MULTIPLIER FOR DELT =     1.000

                            INITIAL TIME STEP SIZE =   365.2500    

 REUSING NON-PARAMETER WELLS FROM LAST STRESS PERIOD

      1 WELL 

 REUSING RECH FROM LAST STRESS PERIOD

 REUSING NON-PARAMETER SPECIFIED-HEAD DATA FROM LAST STRESS PERIOD


      9 TIME-VARIANT SPECIFIED-HEAD CELLS
 
 SOLVING FOR HEAD 

    ------------------------------------------------
       NWT REQUIRED            1 OUTER ITERATIONS 
       AND A TOTAL OF          1 INNER ITERATIONS.
    ------------------------------------------------

 OUTPUT CONTROL FOR STRESS PERIOD    8   TIME STEP    1
    PRINT HEAD FOR ALL LAYERS
    SAVE HEAD FOR ALL LAYERS
    PRINT BUDGET
    SAVE BUDGET
 UBDSV1 SAVING "         STORAGE" ON UNIT  53 AT TIME STEP  1, STRESS PERIOD   8
 UBDSV2 SAVING "   CONSTANT HEAD" ON UNIT  53 AT TIME STEP  1, STRESS PERIOD   8
 UBDSV1 SAVING "FLOW RIGHT FACE " ON UNIT  53 AT TIME STEP  1, STRESS PERIOD   8
 UBDSV1 SAVING "FLOW FRONT FACE " ON UNIT  53 AT TIME STEP  1, STRESS PERIOD   8
1
              HEAD IN LAYER   1 AT END OF TIME STEP   1 IN STRESS PERIOD    8
  ---------------------------------------------------------------------------

            1           2           3           4           5           6           7           8           9          10
           11
 ........................................................................................................................
   1  -1000.0       1000.       1000.       1000.       1000.       1000.       1000.       1000.       1000.       1000.    
      -1000.0    
   2  -1000.0       1002.       1002.       1002.       1002.       1002.       1002.       1002.       1002.       1002.    
      -1000.0    
   3  -1000.0       1003.       1003.       1002.       1002.       1001.       1002.       1002.       1003.       1003.    
      -1000.0    
   4  -1000.0       1003.       1003.       1003.       1001.       1000.       1001.       1003.       1003.       1003.    
      -1000.0    
   5  -1000.0       1004.       1004.       1003.       1001.       996.5       1001.       1003.       1004.       1004.    
      -1000.0    
   6  -1000.0       1005.       1005.       1004.       1003.       1002.       1003.       1004.       1005.       1005.    
      -1000.0    
   7  -1000.0       1006.       1006.       1006.       1005.       1005.       1005.       1006.       1006.       1006.    
      -1000.0    
   8  -1000.0       1007.       1007.       1007.       1007.       1007.       1007.       1007.       1007.       1007.    
      -1000.0    
   9  -1000.0       1008.       1008.       1008.       1008.       1008.       1008.       1008.       1008.       1008.    
      -1000.0    
  10  -1000.0       1010.       1009.       1009.       1009.       1009.       1009.       1009.       1009.       1010.    
      -1000.0    
  11  -1000.0       1010.       1010.       1010.       1010.       1010.       1010.       1010.       1010.       1010.    
      -1000.0    
  12  -1000.0       1011.       1011.       1011.       1011.       1011.       1011.       1011.       1011.       1011.    
      -1000.0    
  13  -1000.0       1012.       1012.       1012.       1012.       1012.       1012.       1012.       1012.       1012.    
      -1000.0    
  14  -1000.0       1013.       1013.       1013.       1013.       1013.       1013.       1013.       1013.       1013.    
      -1000.0    
  15  -1000.0       1013.       1013.       1013.       1013.       1013.       1013.       1013.       1013.       1013.    
      -1000.0    
  16  -1000.0       1014.       1014.       1014.       1014.       1014.       1014.       1014.       1014.       1014.    
      -1000.0    
  17  -1000.0       1014.       1014.       1014.       1014.       1014.       1014.       1014.       1014.       1014.    
      -1000.0    
  18  -1000.0       1015.       1015.       1015.       1015.       1015.       1015.       1015.       1015.       1015.    
      -1000.0    
  19  -1000.0       1015.       1015.       1015.       1015.       1015.       1015.       1015.       1015.       1015.    
      -1000.0    
  20  -1000.0       1016.       1016.       1016.       1016.       1016.       1016.       1016.       1016.       1016.    
      -1000.0    
  21  -1000.0       1016.       1016.       1016.       1016.       1016.       1016.       1016.       1016.       1016.    
      -1000.0    
  22  -1000.0       1016.       1016.       1016.       1016.       1016.       1016.       1016.       1016.       1016.    
      -1000.0    

 HEAD WILL BE SAVED ON UNIT   51 AT END OF TIME STEP    1, STRESS PERIOD    8
1
  VOLUMETRIC BUDGET FOR ENTIRE MODEL AT END OF TIME STEP    1, STRESS PERIOD   8
  ------------------------------------------------------------------------------

     CUMULATIVE VOLUMES      L**3       RATES FOR THIS TIME STEP      L**3/T
     ------------------                 ------------------------

           IN:                                      IN:
           ---                                      ---
             STORAGE =      353705.5000               STORAGE =       2.3168E-04
       CONSTANT HEAD =           0.0000         CONSTANT HEAD =           0.0000
               WELLS =           0.0000                 WELLS =           0.0000
            RECHARGE =    69032248.0000              RECHARGE =       23625.0000

            TOTAL IN =    69385952.0000              TOTAL IN =       23625.0000

          OUT:                                     OUT:
          ----                                     ----
             STORAGE =           0.7302               STORAGE =       3.1166E-04
       CONSTANT HEAD =    18250520.0000         CONSTANT HEAD =        3624.9944
               WELLS =    51135000.0000                 WELLS =       20000.0000
            RECHARGE =           0.0000              RECHARGE =           0.0000

           TOTAL OUT =    69385520.0000             TOTAL OUT =       23624.9941

            IN - OUT =         432.0000              IN - OUT =       5.8594E-03

 PERCENT DISCREPANCY =           0.00     PERCENT DISCREPANCY =           0.00






         TIME SUMMARY AT END OF TIME STEP    1 IN STRESS PERIOD    8
                    SECONDS     MINUTES      HOURS       DAYS        YEARS
                    -----------------------------------------------------------
   TIME STEP LENGTH 3.15576E+07 5.25960E+05  8766.0      365.25      1.0000    
 STRESS PERIOD TIME 3.15576E+07 5.25960E+05  8766.0      365.25      1.0000    
         TOTAL TIME 2.52461E+08 4.20768E+06  70128.      2922.0      8.0000    
1
1
                            STRESS PERIOD NO.    9, LENGTH =   365.2500    
                            -----------------------------------------------

                              NUMBER OF TIME STEPS =     1

                               MULTIPLIER FOR DELT =     1.000

                            INITIAL TIME STEP SIZE =   365.2500    

 REUSING NON-PARAMETER WELLS FROM LAST STRESS PERIOD

      1 WELL 

 REUSING RECH FROM LAST STRESS PERIOD

 REUSING NON-PARAMETER SPECIFIED-HEAD DATA FROM LAST STRESS PERIOD


      9 TIME-VARIANT SPECIFIED-HEAD CELLS
 
 SOLVING FOR HEAD 

    ------------------------------------------------
       NWT REQUIRED            1 OUTER ITERATIONS 
       AND A TOTAL OF          1 INNER ITERATIONS.
    ------------------------------------------------

 OUTPUT CONTROL FOR STRESS PERIOD    9   TIME STEP    1
    PRINT HEAD FOR ALL LAYERS
    SAVE HEAD FOR ALL LAYERS
    PRINT BUDGET
    SAVE BUDGET
 UBDSV1 SAVING "         STORAGE" ON UNIT  53 AT TIME STEP  1, STRESS PERIOD   9
 UBDSV2 SAVING "   CONSTANT HEAD" ON UNIT  53 AT TIME STEP  1, STRESS PERIOD   9
 UBDSV1 SAVING "FLOW RIGHT FACE " ON UNIT  53 AT TIME STEP  1, STRESS PERIOD   9
 UBDSV1 SAVING "FLOW FRONT FACE " ON UNIT  53 AT TIME STEP  1, STRESS PERIOD   9
1
              HEAD IN LAYER   1 AT END OF TIME STEP   1 IN STRESS PERIOD    9
  ---------------------------------------------------------------------------

            1           2           3           4           5           6           7           8           9          10
           11
 ........................................................................................................................
   1  -1000.0       1000.       1000.       1000.       1000.       1000.       1000.       1000.       1000.       1000.    
      -1000.0    
   2  -1000.0       1002.       1002.       1002.       1002.       1002.       1002.       1002.       1002.       1002.    
      -1000.0    
   3  -1000.0       1003.       1003.       1002.       1002.       1001.       1002.       1002.       1003.       1003.    
      -1000.0    
   4  -1000.0       1003.       1003.       1003.       1001.       1000.       1001.       1003.       1003.       1003.    
      -1000.0    
   5  -1000.0       1004.       1004.       1003.       1001.       996.5       1001.       1003.       1004.       1004.    
      -1000.0    
   6  -1000.0       1005.       1005.       1004.       1003.       1002.       1003.       1004.       1005.       1005.    
      -1000.0    
   7  -1000.0       1006.       1006.       1006.       1005.       1005.       1005.       1006.       1006.       1006.    
      -1000.0    
   8  -1000.0       1007.       1007.       1007.       1007.       1007.       1007.       1007.       1007.       1007.    
      -1000.0    
   9  -1000.0       1008.       1008.       1008.       1008.       1008.       1008.       1008.       1008.       1008.    
      -1000.0    
  10  -1000.0       1010.       1009.       1009.       1009.       1009.       1009.       1009.       1009.       1010.    
      -1000.0    
  11  -1000.0       1010.       1010.       1010.       1010.       1010.       1010.       1010.       1010.       1010.    
      -1000.0    
  12  -1000.0       1011.       1011.       1011.       1011.       1011.       1011.       1011.       1011.       1011.    
      -1000.0    
  13  -1000.0       1012.       1012.       1012.       1012.       1012.       1012.       1012.       1012.       1012.    
      -1000.0    
  14  -1000.0       1013.       1013.       1013.       1013.       1013.       1013.       1013.       1013.       1013.    
      -1000.0    
  15  -1000.0       1013.       1013.       1013.       1013.       1013.       1013.       1013.       1013.       1013.    
      -1000.0    
  16  -1000.0       1014.       1014.       1014.       1014.       1014.       1014.       1014.       1014.       1014.    
      -1000.0    
  17  -1000.0       1014.       1014.       1014.       1014.       1014.       1014.       1014.       1014.       1014.    
      -1000.0    
  18  -1000.0       1015.       1015.       1015.       1015.       1015.       1015.       1015.       1015.       1015.    
      -1000.0    
  19  -1000.0       1015.       1015.       1015.       1015.       1015.       1015.       1015.       1015.       1015.    
      -1000.0    
  20  -1000.0       1016.       1016.       1016.       1016.       1016.       1016.       1016.       1016.       1016.    
      -1000.0    
  21  -1000.0       1016.       1016.       1016.       1016.       1016.       1016.       1016.       1016.       1016.    
      -1000.0    
  22  -1000.0       1016.       1016.       1016.       1016.       1016.       1016.       1016.       1016.       1016.    
      -1000.0    

 HEAD WILL BE SAVED ON UNIT   51 AT END OF TIME STEP    1, STRESS PERIOD    9
1
  VOLUMETRIC BUDGET FOR ENTIRE MODEL AT END OF TIME STEP    1, STRESS PERIOD   9
  ------------------------------------------------------------------------------

     CUMULATIVE VOLUMES      L**3       RATES FOR THIS TIME STEP      L**3/T
     ------------------                 ------------------------

           IN:                                      IN:
           ---                                      ---
             STORAGE =      353705.5938               STORAGE =       2.3412E-04
       CONSTANT HEAD =           0.0000         CONSTANT HEAD =           0.0000
               WELLS =           0.0000                 WELLS =           0.0000
            RECHARGE =    77661280.0000              RECHARGE =       23625.0000

            TOTAL IN =    78014984.0000              TOTAL IN =       23625.0000

          OUT:                                     OUT:
          ----                                     ----
             STORAGE =           0.8434               STORAGE =       3.0993E-04
       CONSTANT HEAD =    19574550.0000         CONSTANT HEAD =        3624.9944
               WELLS =    58440000.0000                 WELLS =       20000.0000
            RECHARGE =           0.0000              RECHARGE =           0.0000

           TOTAL OUT =    78014552.0000             TOTAL OUT =       23624.9941

            IN - OUT =         432.0000              IN - OUT =       5.8594E-03

 PERCENT DISCREPANCY =           0.00     PERCENT DISCREPANCY =           0.00






         TIME SUMMARY AT END OF TIME STEP    1 IN STRESS PERIOD    9
                    SECONDS     MINUTES      HOURS       DAYS        YEARS
                    -----------------------------------------------------------
   TIME STEP LENGTH 3.15576E+07 5.25960E+05  8766.0      365.25      1.0000    
 STRESS PERIOD TIME 3.15576E+07 5.25960E+05  8766.0      365.25      1.0000    
         TOTAL TIME 2.84018E+08 4.73364E+06  78894.      3287.2      9.0000    
1
1
                            STRESS PERIOD NO.   10, LENGTH =   365.2500    
                            -----------------------------------------------

                              NUMBER OF TIME STEPS =     1

                               MULTIPLIER FOR DELT =     1.000

                            INITIAL TIME STEP SIZE =   365.2500    

 REUSING NON-PARAMETER WELLS FROM LAST STRESS PERIOD

      1 WELL 

 REUSING RECH FROM LAST STRESS PERIOD

 REUSING NON-PARAMETER SPECIFIED-HEAD DATA FROM LAST STRESS PERIOD


      9 TIME-VARIANT SPECIFIED-HEAD CELLS
 
 SOLVING FOR HEAD 

    ------------------------------------------------
       NWT REQUIRED            1 OUTER ITERATIONS 
       AND A TOTAL OF          1 INNER ITERATIONS.
    ------------------------------------------------

 OUTPUT CONTROL FOR STRESS PERIOD   10   TIME STEP    1
    PRINT HEAD FOR ALL LAYERS
    SAVE HEAD FOR ALL LAYERS
    PRINT BUDGET
    SAVE BUDGET
 UBDSV1 SAVING "         STORAGE" ON UNIT  53 AT TIME STEP  1, STRESS PERIOD  10
 UBDSV2 SAVING "   CONSTANT HEAD" ON UNIT  53 AT TIME STEP  1, STRESS PERIOD  10
 UBDSV1 SAVING "FLOW RIGHT FACE " ON UNIT  53 AT TIME STEP  1, STRESS PERIOD  10
 UBDSV1 SAVING "FLOW FRONT FACE " ON UNIT  53 AT TIME STEP  1, STRESS PERIOD  10
1
              HEAD IN LAYER   1 AT END OF TIME STEP   1 IN STRESS PERIOD   10
  ---------------------------------------------------------------------------

            1           2           3           4           5           6           7           8           9          10
           11
 ........................................................................................................................
   1  -1000.0       1000.       1000.       1000.       1000.       1000.       1000.       1000.       1000.       1000.    
      -1000.0    
   2  -1000.0       1002.       1002.       1002.       1002.       1002.       1002.       1002.       1002.       1002.    
      -1000.0    
   3  -1000.0       1003.       1003.       1002.       1002.       1001.       1002.       1002.       1003.       1003.    
      -1000.0    
   4  -1000.0       1003.       1003.       1003.       1001.       1000.       1001.       1003.       1003.       1003.    
      -1000.0    
   5  -1000.0       1004.       1004.       1003.       1001.       996.5       1001.       1003.       1004.       1004.    
      -1000.0    
   6  -1000.0       1005.       1005.       1004.       1003.       1002.       1003.       1004.       1005.       1005.    
      -1000.0    
   7  -1000.0       1006.       1006.       1006.       1005.       1005.       1005.       1006.       1006.       1006.    
      -1000.0    
   8  -1000.0       1007.       1007.       1007.       1007.       1007.       1007.       1007.       1007.       1007.    
      -1000.0    
   9  -1000.0       1008.       1008.       1008.       1008.       1008.       1008.       1008.       1008.       1008.    
      -1000.0    
  10  -1000.0       1010.       1009.       1009.       1009.       1009.       1009.       1009.       1009.       1010.    
      -1000.0    
  11  -1000.0       1010.       1010.       1010.       1010.       1010.       1010.       1010.       1010.       1010.    
      -1000.0    
  12  -1000.0       1011.       1011.       1011.       1011.       1011.       1011.       1011.       1011.       1011.    
      -1000.0    
  13  -1000.0       1012.       1012.       1012.       1012.       1012.       1012.       1012.       1012.       1012.    
      -1000.0    
  14  -1000.0       1013.       1013.       1013.       1013.       1013.       1013.       1013.       1013.       1013.    
      -1000.0    
  15  -1000.0       1013.       1013.       1013.       1013.       1013.       1013.       1013.       1013.       1013.    
      -1000.0    
  16  -1000.0       1014.       1014.       1014.       1014.       1014.       1014.       1014.       1014.       1014.    
      -1000.0    
  17  -1000.0       1014.       1014.       1014.       1014.       1014.       1014.       1014.       1014.       1014.    
      -1000.0    
  18  -1000.0       1015.       1015.       1015.       1015.       1015.       1015.       1015.       1015.       1015.    
      -1000.0    
  19  -1000.0       1015.       1015.       1015.       1015.       1015.       1015.       1015.       1015.       1015.    
      -1000.0    
  20  -1000.0       1016.       1016.       1016.       1016.       1016.       1016.       1016.       1016.       1016.    
      -1000.0    
  21  -1000.0       1016.       1016.       1016.       1016.       1016.       1016.       1016.       1016.       1016.    
      -1000.0    
  22  -1000.0       1016.       1016.       1016.       1016.       1016.       1016.       1016.       1016.       1016.    
      -1000.0    

 HEAD WILL BE SAVED ON UNIT   51 AT END OF TIME STEP    1, STRESS PERIOD   10
1
  VOLUMETRIC BUDGET FOR ENTIRE MODEL AT END OF TIME STEP    1, STRESS PERIOD  10
  ------------------------------------------------------------------------------

     CUMULATIVE VOLUMES      L**3       RATES FOR THIS TIME STEP      L**3/T
     ------------------                 ------------------------

           IN:                                      IN:
           ---                                      ---
             STORAGE =      353705.6875               STORAGE =       2.3581E-04
       CONSTANT HEAD =           0.0000         CONSTANT HEAD =           0.0000
               WELLS =           0.0000                 WELLS =           0.0000
            RECHARGE =    86290312.0000              RECHARGE =       23625.0000

            TOTAL IN =    86644016.0000              TOTAL IN =       23625.0000

          OUT:                                     OUT:
          ----                                     ----
             STORAGE =           0.9562               STORAGE =       3.0881E-04
       CONSTANT HEAD =    20898580.0000         CONSTANT HEAD =        3624.9944
               WELLS =    65745000.0000                 WELLS =       20000.0000
            RECHARGE =           0.0000              RECHARGE =           0.0000

           TOTAL OUT =    86643584.0000             TOTAL OUT =       23624.9941

            IN - OUT =         432.0000              IN - OUT =       5.8594E-03

 PERCENT DISCREPANCY =           0.00     PERCENT DISCREPANCY =           0.00






         TIME SUMMARY AT END OF TIME STEP    1 IN STRESS PERIOD   10
                    SECONDS     MINUTES      HOURS       DAYS        YEARS
                    -----------------------------------------------------------
   TIME STEP LENGTH 3.15576E+07 5.25960E+05  8766.0      365.25      1.0000    
 STRESS PERIOD TIME 3.15576E+07 5.25960E+05  8766.0      365.25      1.0000    
         TOTAL TIME 3.15576E+08 5.25960E+06  87660.      3652.5      10.000    
1
1
                            STRESS PERIOD NO.   11, LENGTH =   365.2500    
                            -----------------------------------------------

                              NUMBER OF TIME STEPS =     1

                               MULTIPLIER FOR DELT =     1.000

                            INITIAL TIME STEP SIZE =   365.2500    

 REUSING NON-PARAMETER WELLS FROM LAST STRESS PERIOD

      1 WELL 

 REUSING RECH FROM LAST STRESS PERIOD

 REUSING NON-PARAMETER SPECIFIED-HEAD DATA FROM LAST STRESS PERIOD


      9 TIME-VARIANT SPECIFIED-HEAD CELLS
 
 SOLVING FOR HEAD 

    ------------------------------------------------
       NWT REQUIRED            1 OUTER ITERATIONS 
       AND A TOTAL OF          1 INNER ITERATIONS.
    ------------------------------------------------

 OUTPUT CONTROL FOR STRESS PERIOD   11   TIME STEP    1
    PRINT HEAD FOR ALL LAYERS
    SAVE HEAD FOR ALL LAYERS
    PRINT BUDGET
    SAVE BUDGET
 UBDSV1 SAVING "         STORAGE" ON UNIT  53 AT TIME STEP  1, STRESS PERIOD  11
 UBDSV2 SAVING "   CONSTANT HEAD" ON UNIT  53 AT TIME STEP  1, STRESS PERIOD  11
 UBDSV1 SAVING "FLOW RIGHT FACE " ON UNIT  53 AT TIME STEP  1, STRESS PERIOD  11
 UBDSV1 SAVING "FLOW FRONT FACE " ON UNIT  53 AT TIME STEP  1, STRESS PERIOD  11
1
              HEAD IN LAYER   1 AT END OF TIME STEP   1 IN STRESS PERIOD   11
  ---------------------------------------------------------------------------

            1           2           3           4           5           6           7           8           9          10
           11
 ........................................................................................................................
   1  -1000.0       1000.       1000.       1000.       1000.       1000.       1000.       1000.       1000.       1000.    
      -1000.0    
   2  -1000.0       1002.       1002.       1002.       1002.       1002.       1002.       1002.       1002.       1002.    
      -1000.0    
   3  -1000.0       1003.       1003.       1002.       1002.       1001.       1002.       1002.       1003.       1003.    
      -1000.0    
   4  -1000.0       1003.       1003.       1003.       1001.       1000.       1001.       1003.       1003.       1003.    
      -1000.0    
   5  -1000.0       1004.       1004.       1003.       1001.       996.5       1001.       1003.       1004.       1004.    
      -1000.0    
   6  -1000.0       1005.       1005.       1004.       1003.       1002.       1003.       1004.       1005.       1005.    
      -1000.0    
   7  -1000.0       1006.       1006.       1006.       1005.       1005.       1005.       1006.       1006.       1006.    
      -1000.0    
   8  -1000.0       1007.       1007.       1007.       1007.       1007.       1007.       1007.       1007.       1007.    
      -1000.0    
   9  -1000.0       1008.       1008.       1008.       1008.       1008.       1008.       1008.       1008.       1008.    
      -1000.0    
  10  -1000.0       1010.       1009.       1009.       1009.       1009.       1009.       1009.       1009.       1010.    
      -1000.0    
  11  -1000.0       1010.       1010.       1010.       1010.       1010.       1010.       1010.       1010.       1010.    
      -1000.0    
  12  -1000.0       1011.       1011.       1011.       1011.       1011.       1011.       1011.       1011.       1011.    
      -1000.0    
  13  -1000.0       1012.       1012.       1012.       1012.       1012.       1012.       1012.       1012.       1012.    
      -1000.0    
  14  -1000.0       1013.       1013.       1013.       1013.       1013.       1013.       1013.       1013.       1013.    
      -1000.0    
  15  -1000.0       1013.       1013.       1013.       1013.       1013.       1013.       1013.       1013.       1013.    
      -1000.0    
  16  -1000.0       1014.       1014.       1014.       1014.       1014.       1014.       1014.       1014.       1014.    
      -1000.0    
  17  -1000.0       1014.       1014.       1014.       1014.       1014.       1014.       1014.       1014.       1014.    
      -1000.0    
  18  -1000.0       1015.       1015.       1015.       1015.       1015.       1015.       1015.       1015.       1015.    
      -1000.0    
  19  -1000.0       1015.       1015.       1015.       1015.       1015.       1015.       1015.       1015.       1015.    
      -1000.0    
  20  -1000.0       1016.       1016.       1016.       1016.       1016.       1016.       1016.       1016.       1016.    
      -1000.0    
  21  -1000.0       1016.       1016.       1016.       1016.       1016.       1016.       1016.       1016.       1016.    
      -1000.0    
  22  -1000.0       1016.       1016.       1016.       1016.       1016.       1016.       1016.       1016.       1016.    
      -1000.0    

 HEAD WILL BE SAVED ON UNIT   51 AT END OF TIME STEP    1, STRESS PERIOD   11
1
  VOLUMETRIC BUDGET FOR ENTIRE MODEL AT END OF TIME STEP    1, STRESS PERIOD  11
  ------------------------------------------------------------------------------

     CUMULATIVE VOLUMES      L**3       RATES FOR THIS TIME STEP      L**3/T
     ------------------                 ------------------------

           IN:                                      IN:
           ---                                      ---
             STORAGE =      353705.7812               STORAGE =       2.2930E-04
       CONSTANT HEAD =           0.0000         CONSTANT HEAD =           0.0000
               WELLS =           0.0000                 WELLS =           0.0000
            RECHARGE =    94919344.0000              RECHARGE =       23625.0000

            TOTAL IN =    95273048.0000              TOTAL IN =       23625.0000

          OUT:                                     OUT:
          ----                                     ----
             STORAGE =           1.0720               STORAGE =       3.1711E-04
       CONSTANT HEAD =    22222610.0000         CONSTANT HEAD =        3624.9946
               WELLS =    73050000.0000                 WELLS =       20000.0000
            RECHARGE =           0.0000              RECHARGE =           0.0000

           TOTAL OUT =    95272608.0000             TOTAL OUT =       23624.9941

            IN - OUT =         440.0000              IN - OUT =       5.8594E-03

 PERCENT DISCREPANCY =           0.00     PERCENT DISCREPANCY =           0.00






         TIME SUMMARY AT END OF TIME STEP    1 IN STRESS PERIOD   11
                    SECONDS     MINUTES      HOURS       DAYS        YEARS
                    -----------------------------------------------------------
   TIME STEP LENGTH 3.15576E+07 5.25960E+05  8766.0      365.25      1.0000    
 STRESS PERIOD TIME 3.15576E+07 5.25960E+05  8766.0      365.25      1.0000    
         TOTAL TIME 3.47134E+08 5.78556E+06  96426.      4017.8      11.000    
1
1
                            STRESS PERIOD NO.   12, LENGTH =   365.2500    
                            -----------------------------------------------

                              NUMBER OF TIME STEPS =     1

                               MULTIPLIER FOR DELT =     1.000

                            INITIAL TIME STEP SIZE =   365.2500    

 REUSING NON-PARAMETER WELLS FROM LAST STRESS PERIOD

      1 WELL 

 REUSING RECH FROM LAST STRESS PERIOD

 REUSING NON-PARAMETER SPECIFIED-HEAD DATA FROM LAST STRESS PERIOD


      9 TIME-VARIANT SPECIFIED-HEAD CELLS
 
 SOLVING FOR HEAD 

    ------------------------------------------------
       NWT REQUIRED            1 OUTER ITERATIONS 
       AND A TOTAL OF          1 INNER ITERATIONS.
    ------------------------------------------------

 OUTPUT CONTROL FOR STRESS PERIOD   12   TIME STEP    1
    PRINT HEAD FOR ALL LAYERS
    SAVE HEAD FOR ALL LAYERS
    PRINT BUDGET
    SAVE BUDGET
 UBDSV1 SAVING "         STORAGE" ON UNIT  53 AT TIME STEP  1, STRESS PERIOD  12
 UBDSV2 SAVING "   CONSTANT HEAD" ON UNIT  53 AT TIME STEP  1, STRESS PERIOD  12
 UBDSV1 SAVING "FLOW RIGHT FACE " ON UNIT  53 AT TIME STEP  1, STRESS PERIOD  12
 UBDSV1 SAVING "FLOW FRONT FACE " ON UNIT  53 AT TIME STEP  1, STRESS PERIOD  12
1
              HEAD IN LAYER   1 AT END OF TIME STEP   1 IN STRESS PERIOD   12
  ---------------------------------------------------------------------------

            1           2           3           4           5           6           7           8           9          10
           11
 ........................................................................................................................
   1  -1000.0       1000.       1000.       1000.       1000.       1000.       1000.       1000.       1000.       1000.    
      -1000.0    
   2  -1000.0       1002.       1002.       1002.       1002.       1002.       1002.       1002.       1002.       1002.    
      -1000.0    
   3  -1000.0       1003.       1003.       1002.       1002.       1001.       1002.       1002.       1003.       1003.    
      -1000.0    
   4  -1000.0       1003.       1003.       1003.       1001.       1000.       1001.       1003.       1003.       1003.    
      -1000.0    
   5  -1000.0       1004.       1004.       1003.       1001.       996.5       1001.       1003.       1004.       1004.    
      -1000.0    
   6  -1000.0       1005.       1005.       1004.       1003.       1002.       1003.       1004.       1005.       1005.    
      -1000.0    
   7  -1000.0       1006.       1006.       1006.       1005.       1005.       1005.       1006.       1006.       1006.    
      -1000.0    
   8  -1000.0       1007.       1007.       1007.       1007.       1007.       1007.       1007.       1007.       1007.    
      -1000.0    
   9  -1000.0       1008.       1008.       1008.       1008.       1008.       1008.       1008.       1008.       1008.    
      -1000.0    
  10  -1000.0       1010.       1009.       1009.       1009.       1009.       1009.       1009.       1009.       1010.    
      -1000.0    
  11  -1000.0       1010.       1010.       1010.       1010.       1010.       1010.       1010.       1010.       1010.    
      -1000.0    
  12  -1000.0       1011.       1011.       1011.       1011.       1011.       1011.       1011.       1011.       1011.    
      -1000.0    
  13  -1000.0       1012.       1012.       1012.       1012.       1012.       1012.       1012.       1012.       1012.    
      -1000.0    
  14  -1000.0       1013.       1013.       1013.       1013.       1013.       1013.       1013.       1013.       1013.    
      -1000.0    
  15  -1000.0       1013.       1013.       1013.       1013.       1013.       1013.       1013.       1013.       1013.    
      -1000.0    
  16  -1000.0       1014.       1014.       1014.       1014.       1014.       1014.       1014.       1014.       1014.    
      -1000.0    
  17  -1000.0       1014.       1014.       1014.       1014.       1014.       1014.       1014.       1014.       1014.    
      -1000.0    
  18  -1000.0       1015.       1015.       1015.       1015.       1015.       1015.       1015.       1015.       1015.    
      -1000.0    
  19  -1000.0       1015.       1015.       1015.       1015.       1015.       1015.       1015.       1015.       1015.    
      -1000.0    
  20  -1000.0       1016.       1016.       1016.       1016.       1016.       1016.       1016.       1016.       1016.    
      -1000.0    
  21  -1000.0       1016.       1016.       1016.       1016.       1016.       1016.       1016.       1016.       1016.    
      -1000.0    
  22  -1000.0       1016.       1016.       1016.       1016.       1016.       1016.       1016.       1016.       1016.    
      -1000.0    

 HEAD WILL BE SAVED ON UNIT   51 AT END OF TIME STEP    1, STRESS PERIOD   12
1
  VOLUMETRIC BUDGET FOR ENTIRE MODEL AT END OF TIME STEP    1, STRESS PERIOD  12
  ------------------------------------------------------------------------------

     CUMULATIVE VOLUMES      L**3       RATES FOR THIS TIME STEP      L**3/T
     ------------------                 ------------------------

           IN:                                      IN:
           ---                                      ---
             STORAGE =      353705.8750               STORAGE =       2.3031E-04
       CONSTANT HEAD =           0.0000         CONSTANT HEAD =           0.0000
               WELLS =           0.0000                 WELLS =           0.0000
            RECHARGE =   103548376.0000              RECHARGE =       23625.0000

            TOTAL IN =   103902080.0000              TOTAL IN =       23625.0000

          OUT:                                     OUT:
          ----                                     ----
             STORAGE =           1.1873               STORAGE =       3.1564E-04
       CONSTANT HEAD =    23546640.0000         CONSTANT HEAD =        3624.9946
               WELLS =    80355000.0000                 WELLS =       20000.0000
            RECHARGE =           0.0000              RECHARGE =           0.0000

           TOTAL OUT =   103901640.0000             TOTAL OUT =       23624.9941

            IN - OUT =         440.0000              IN - OUT =       5.8594E-03

 PERCENT DISCREPANCY =           0.00     PERCENT DISCREPANCY =           0.00






         TIME SUMMARY AT END OF TIME STEP    1 IN STRESS PERIOD   12
                    SECONDS     MINUTES      HOURS       DAYS        YEARS
                    -----------------------------------------------------------
   TIME STEP LENGTH 3.15576E+07 5.25960E+05  8766.0      365.25      1.0000    
 STRESS PERIOD TIME 3.15576E+07 5.25960E+05  8766.0      365.25      1.0000    
         TOTAL TIME 3.78691E+08 6.31152E+06 1.05192E+05  4383.0      12.000    
1

 Run end date and time (yyyy/mm/dd hh:mm:ss): 2018/02/14 14:07:23
 Elapsed run time:  0.131 Seconds

